####################################################################### 
# 
# This file contains crystal structure data downloaded from the 
# Cambridge Structural Database (CSD) hosted by the Cambridge 
# Crystallographic Data Centre (CCDC).
# 
# Full information about CCDC data access policies and citation 
# guidelines are available at http://www.ccdc.cam.ac.uk/access/V1 
# 
# Audit and citation data items may have been added by the CCDC. 
# Please retain this information to preserve the provenance of 
# this file and to allow appropriate attribution of the data. 
# 
#######################################################################

data_jl20012_refinalized
_audit_block_doi                 10.5517/ccdc.csd.cc27ytjk
_database_code_depnum_ccdc_archive 'CCDC 2084239'
loop_
_citation_id
_citation_doi
_citation_year
1 10.1038/s41467-021-26563-7 2021
loop_
_audit_author_name
_audit_author_address
'Luke Kinsman'
;University of Edinburgh
United Kingdom
;
_audit_update_record             
;
2021-08-10 deposited with the CCDC.	2022-09-21 downloaded from the CCDC.
;
_audit_creation_date             2021-07-21
_audit_creation_method           
;
Olex2 1.3-beta
(compiled 2020.11.12 svn.r5f609507 for OlexSys, GUI svn.r6272)
;
_shelx_SHELXL_version_number     2018/3
_chemical_name_common            ?
_chemical_name_systematic        ?
_chemical_formula_moiety         'Au Cl4, C18 H21 N2 O2'
_chemical_formula_sum            'C18 H21 Au Cl4 N2 O2'
_chemical_formula_weight         636.13
_chemical_melting_point          ?
loop_
_atom_type_symbol
_atom_type_description
_atom_type_scat_dispersion_real
_atom_type_scat_dispersion_imag
_atom_type_scat_source
C C 0.0033 0.0016 'International Tables Vol C Tables 4.2.6.8 and 6.1.1.4'
H H 0.0000 0.0000 'International Tables Vol C Tables 4.2.6.8 and 6.1.1.4'
Au Au -2.0133 8.8022 'International Tables Vol C Tables 4.2.6.8 and 6.1.1.4'
Cl Cl 0.1484 0.1585 'International Tables Vol C Tables 4.2.6.8 and 6.1.1.4'
N N 0.0061 0.0033 'International Tables Vol C Tables 4.2.6.8 and 6.1.1.4'
O O 0.0106 0.0060 'International Tables Vol C Tables 4.2.6.8 and 6.1.1.4'

_shelx_space_group_comment       
;
The symmetry employed for this shelxl refinement is uniquely defined
by the following loop, which should always be used as a source of
symmetry information in preference to the above space-group names.
They are only intended as comments.
;
_space_group_crystal_system      monoclinic
_space_group_IT_number           15
_space_group_name_H-M_alt        'I 1 2/a 1'
_space_group_name_Hall           '-I 2ya'
loop_
_space_group_symop_operation_xyz
'x, y, z'
'-x+1/2, y, -z'
'x+1/2, y+1/2, z+1/2'
'-x+1, y+1/2, -z+1/2'
'-x, -y, -z'
'x-1/2, -y, z'
'-x+1/2, -y+1/2, -z+1/2'
'x, -y+1/2, z+1/2'

_cell_length_a                   12.0848(7)
_cell_length_b                   16.9574(2)
_cell_length_c                   16.5644(10)
_cell_angle_alpha                90
_cell_angle_beta                 142.074(13)
_cell_angle_gamma                90
_cell_volume                     2086.4(4)
_cell_formula_units_Z            4
_cell_measurement_reflns_used    12746
_cell_measurement_temperature    120.0
_cell_measurement_theta_max      29.3380
_cell_measurement_theta_min      3.9360
_shelx_estimated_absorpt_T_max   0.663
_shelx_estimated_absorpt_T_min   0.261
_exptl_absorpt_coefficient_mu    7.580
_exptl_absorpt_correction_T_max  1.00000
_exptl_absorpt_correction_T_min  0.60951
_exptl_absorpt_correction_type   multi-scan
_exptl_absorpt_process_details   
;
CrysAlisPro 1.171.40.84a (Rigaku Oxford Diffraction, 2020)
Empirical absorption correction using spherical harmonics,
implemented in SCALE3 ABSPACK scaling algorithm.
;
_exptl_absorpt_special_details   ?
_exptl_crystal_colour            'light yellow'
_exptl_crystal_density_diffrn    2.025
_exptl_crystal_density_meas      ?
_exptl_crystal_density_method    ?
_exptl_crystal_description       prism
_exptl_crystal_F_000             1224
loop_
_exptl_crystal_face_index_h
_exptl_crystal_face_index_k
_exptl_crystal_face_index_l
_exptl_crystal_face_perp_dist
1 0 -1 0.0318
-1 0 1 0.0267
2 12 -15 0.0697
3 14 8 0.0755
-2 -12 15 0.0558
-3 -13 -8 0.0688

_exptl_crystal_size_max          0.242
_exptl_crystal_size_mid          0.126
_exptl_crystal_size_min          0.059
_exptl_transmission_factor_max   ?
_exptl_transmission_factor_min   ?
_diffrn_reflns_av_R_equivalents  0.0275
_diffrn_reflns_av_unetI/netI     0.0172
_diffrn_reflns_Laue_measured_fraction_full 0.997
_diffrn_reflns_Laue_measured_fraction_max 0.918
_diffrn_reflns_limit_h_max       16
_diffrn_reflns_limit_h_min       -16
_diffrn_reflns_limit_k_max       22
_diffrn_reflns_limit_k_min       -22
_diffrn_reflns_limit_l_max       22
_diffrn_reflns_limit_l_min       -22
_diffrn_reflns_number            22821
_diffrn_reflns_point_group_measured_fraction_full 0.997
_diffrn_reflns_point_group_measured_fraction_max 0.918
_diffrn_reflns_theta_full        25.242
_diffrn_reflns_theta_max         29.468
_diffrn_reflns_theta_min         3.387
_diffrn_ambient_temperature      120.0
_diffrn_detector_area_resol_mean 8.0521
_diffrn_detector_type            Eos
_diffrn_measured_fraction_theta_full 0.997
_diffrn_measured_fraction_theta_max 0.918
_diffrn_measurement_details      
;
List of Runs (angles in degrees, time in seconds):

  # Type    Start    End  Width  t~exp~   \w     \q     \k     \f   Frames
#--------------------------------------------------------------------------
  1  \w    -33.00  52.00   1.00   10.00    --  -15.82  51.00  66.00   85
  2  \w    -50.00  35.00   1.00   10.00    --   17.54 -51.00 -79.00   85
  3  \w      1.00  85.00   1.00   10.00    --   17.54  51.00  66.00   84
  4  \w    -39.00  44.00   1.00   10.00    --   17.54 -77.00-180.00   83
  5  \w     -9.00  39.00   1.00   10.00    --   17.54  77.00  30.00   48
  6  \w      1.00  85.00   1.00   10.00    --   17.54  57.00 -60.00   84
  7  \w     -9.00  39.00   1.00   10.00    --   17.54  77.00 150.00   48
  8  \w    -88.00 -39.00   1.00   10.00    --  -15.82-178.00   0.00   49
  9  \w    -39.00  44.00   1.00   10.00    --   17.54 -77.00 150.00   83
 10  \w    -39.00  44.00   1.00   10.00    --   17.54 -77.00 -90.00   83
 11  \w     -9.00  39.00   1.00   10.00    --   17.54  77.00-120.00   48
 12  \w    -39.00  44.00   1.00   10.00    --   17.54 -77.00   0.00   83
 13  \w     -9.00  39.00   1.00   10.00    --   17.54  77.00-150.00   48
 14  \w    -20.00  46.00   1.00   10.00    --   17.54 -99.00 120.00   66
;
_diffrn_measurement_device       'four-circle diffractometer'
_diffrn_measurement_device_type  'Rigaku Oxford Diffraction XCalibur'
_diffrn_measurement_method       '\w scans'
_diffrn_radiation_type           MoK\a
_diffrn_radiation_wavelength     0.71073
_diffrn_source                   ?
_reflns_Friedel_coverage         0.000
_reflns_Friedel_fraction_full    .
_reflns_Friedel_fraction_max     .
_reflns_number_gt                2397
_reflns_number_total             2669
_reflns_special_details          
;
 Reflections were merged by SHELXL according to the crystal
 class for the calculation of statistics and refinement.
 
 _reflns_Friedel_fraction is defined as the number of unique
 Friedel pairs measured divided by the number that would be
 possible theoretically, ignoring centric projections and
 systematic absences.
;
_reflns_threshold_expression     'I > 2\s(I)'
_computing_cell_refinement       'CrysAlisPro 1.171.40.84a (Rigaku OD, 2020)'
_computing_data_collection       'CrysAlisPro 1.171.40.84a (Rigaku OD, 2020)'
_computing_data_reduction        'CrysAlisPro 1.171.40.84a (Rigaku OD, 2020)'
_computing_molecular_graphics    'Olex2 1.3-beta (Dolomanov et al., 2009)'
_computing_publication_material  'Olex2 1.3-beta (Dolomanov et al., 2009)'
_computing_structure_refinement  'SHELXL 2018/3 (Sheldrick, 2015)'
_computing_structure_solution    'SHELXT 2018/2 (Sheldrick, 2018)'
_refine_diff_density_max         0.535
_refine_diff_density_min         -0.527
_refine_diff_density_rms         0.086
_refine_ls_extinction_coef       .
_refine_ls_extinction_method     none
_refine_ls_goodness_of_fit_ref   1.071
_refine_ls_hydrogen_treatment    mixed
_refine_ls_matrix_type           full
_refine_ls_number_parameters     129
_refine_ls_number_reflns         2669
_refine_ls_number_restraints     1
_refine_ls_R_factor_all          0.0203
_refine_ls_R_factor_gt           0.0161
_refine_ls_restrained_S_all      1.071
_refine_ls_shift/su_max          0.001
_refine_ls_shift/su_mean         0.000
_refine_ls_structure_factor_coef Fsqd
_refine_ls_weighting_details     
'w=1/[\s^2^(Fo^2^)+(0.0073P)^2^+4.3281P] where P=(Fo^2^+2Fc^2^)/3'
_refine_ls_weighting_scheme      calc
_refine_ls_wR_factor_gt          0.0290
_refine_ls_wR_factor_ref         0.0301
_refine_special_details          
'The O-bound H atom was identified from a difference Fourier map and modelled with a distance restraint.'
_olex2_refinement_description    
;
1. Fixed Uiso
 At 1.2 times of:
  All C(H) groups, All C(H,H) groups
 At 1.5 times of:
  All C(H,H,H) groups
2. Restrained distances
 O1-H1
 0.84 with sigma of 0.02
3. Others
 Fixed Sof: H1(0.5)
4.a Secondary CH2 refined with riding coordinates:
 C3(H3A,H3B)
4.b Aromatic/amide H refined with riding coordinates:
 C5(H5), C6(H6), C7(H7), C8(H8), C9(H9)
4.c Idealised Me refined as rotating group:
 C2(H2A,H2B,H2C)
;
_atom_sites_solution_hydrogens   mixed
_atom_sites_solution_primary     ?
_atom_sites_solution_secondary   ?
loop_
_atom_site_label
_atom_site_type_symbol
_atom_site_fract_x
_atom_site_fract_y
_atom_site_fract_z
_atom_site_U_iso_or_equiv
_atom_site_adp_type
_atom_site_occupancy
_atom_site_site_symmetry_order
_atom_site_calc_flag
_atom_site_refinement_flags_posn
_atom_site_refinement_flags_adp
_atom_site_refinement_flags_occupancy
_atom_site_disorder_assembly
_atom_site_disorder_group
Au1 Au 0.250000 0.750000 0.750000 0.01376(3) Uani 1 2 d S . P . .
Cl1 Cl -0.04205(7) 0.79067(3) 0.57624(5) 0.02333(11) Uani 1 1 d . . . . .
Cl2 Cl 0.15416(7) 0.62704(3) 0.72992(5) 0.02370(11) Uani 1 1 d . . . . .
O1 O 0.09012(18) 0.53881(8) 0.50560(13) 0.0155(3) Uani 1 1 d D . . . .
N1 N 0.3582(2) 0.59410(9) 0.63845(15) 0.0125(3) Uani 1 1 d . . . . .
C1 C 0.2609(3) 0.53602(11) 0.61267(18) 0.0123(4) Uani 1 1 d . . . . .
C2 C 0.5554(3) 0.59283(12) 0.74396(19) 0.0172(4) Uani 1 1 d . . . . .
H2A H 0.589349 0.611400 0.709579 0.026 Uiso 1 1 calc R U . . .
H2B H 0.599290 0.538848 0.776925 0.026 Uiso 1 1 calc R U . . .
H2C H 0.608949 0.627378 0.815670 0.026 Uiso 1 1 calc R U . . .
C3 C 0.2644(3) 0.66440(11) 0.55382(19) 0.0145(4) Uani 1 1 d . . . . .
H3A H 0.334808 0.711782 0.609265 0.017 Uiso 1 1 calc R U . . .
H3B H 0.145736 0.668355 0.512467 0.017 Uiso 1 1 calc R U . . .
C4 C 0.3424(3) 0.46867(11) 0.70341(19) 0.0129(4) Uani 1 1 d . . . . .
C5 C 0.2845(3) 0.39274(11) 0.6515(2) 0.0151(4) Uani 1 1 d . . . . .
H5 H 0.202029 0.384303 0.561054 0.018 Uiso 1 1 calc R U . . .
C6 C 0.3484(3) 0.32938(12) 0.7331(2) 0.0206(4) Uani 1 1 d . . . . .
H6 H 0.311910 0.277226 0.699056 0.025 Uiso 1 1 calc R U . . .
C7 C 0.4651(3) 0.34236(13) 0.8640(2) 0.0234(5) Uani 1 1 d . . . . .
H7 H 0.506826 0.298952 0.919058 0.028 Uiso 1 1 calc R U . . .
C8 C 0.5218(3) 0.41784(13) 0.9156(2) 0.0223(5) Uani 1 1 d . . . . .
H8 H 0.601611 0.426131 1.005545 0.027 Uiso 1 1 calc R U . . .
C9 C 0.4620(3) 0.48129(12) 0.8358(2) 0.0176(4) Uani 1 1 d . . . . .
H9 H 0.502181 0.533120 0.871158 0.021 Uiso 1 1 calc R U . . .
H1 H 0.035(6) 0.508(2) 0.502(5) 0.011(12) Uiso 0.5 1 d D . P A -1

loop_
_atom_site_aniso_label
_atom_site_aniso_U_11
_atom_site_aniso_U_22
_atom_site_aniso_U_33
_atom_site_aniso_U_23
_atom_site_aniso_U_13
_atom_site_aniso_U_12
Au1 0.01110(5) 0.01955(6) 0.01078(5) -0.00093(4) 0.00867(5) 0.00138(4)
Cl1 0.0122(2) 0.0279(3) 0.0175(2) -0.0001(2) 0.0088(2) 0.0038(2)
Cl2 0.0199(3) 0.0230(3) 0.0212(3) 0.0005(2) 0.0145(2) -0.0017(2)
O1 0.0115(7) 0.0175(7) 0.0138(7) 0.0042(5) 0.0091(6) -0.0009(5)
N1 0.0119(8) 0.0125(8) 0.0131(8) 0.0000(6) 0.0099(7) -0.0008(6)
C1 0.0119(9) 0.0136(9) 0.0127(9) 0.0000(7) 0.0100(8) 0.0000(7)
C2 0.0114(9) 0.0215(10) 0.0153(10) -0.0034(8) 0.0097(9) -0.0041(8)
C3 0.0202(10) 0.0099(9) 0.0201(10) -0.0003(7) 0.0175(9) 0.0003(7)
C4 0.0101(9) 0.0162(9) 0.0140(9) 0.0032(7) 0.0098(8) 0.0017(7)
C5 0.0138(9) 0.0161(10) 0.0165(10) 0.0001(7) 0.0122(9) 0.0007(7)
C6 0.0226(11) 0.0127(10) 0.0305(12) 0.0032(8) 0.0219(10) 0.0032(8)
C7 0.0249(11) 0.0223(11) 0.0286(12) 0.0150(9) 0.0224(11) 0.0129(9)
C8 0.0183(10) 0.0297(12) 0.0151(10) 0.0063(9) 0.0123(9) 0.0057(9)
C9 0.0153(10) 0.0188(10) 0.0157(10) 0.0009(8) 0.0116(9) 0.0006(8)

_geom_special_details            
;
 All esds (except the esd in the dihedral angle between two l.s. planes)
 are estimated using the full covariance matrix.  The cell esds are taken
 into account individually in the estimation of esds in distances, angles
 and torsion angles; correlations between esds in cell parameters are only
 used when they are defined by crystal symmetry.  An approximate (isotropic)
 treatment of cell esds is used for estimating esds involving l.s. planes.
;
loop_
_geom_bond_atom_site_label_1
_geom_bond_atom_site_label_2
_geom_bond_distance
_geom_bond_site_symmetry_2
_geom_bond_publ_flag
Au1 Cl1 2.2782(8) . ?
Au1 Cl1 2.2783(8) 7_566 ?
Au1 Cl2 2.2786(5) 7_566 ?
Au1 Cl2 2.2786(5) . ?
O1 C1 1.278(2) . ?
O1 H1 0.818(18) . ?
N1 C1 1.320(2) . ?
N1 C2 1.471(2) . ?
N1 C3 1.471(2) . ?
C1 C4 1.483(3) . ?
C2 H2A 0.9800 . ?
C2 H2B 0.9800 . ?
C2 H2C 0.9800 . ?
C3 C3 1.524(4) 2_556 ?
C3 H3A 0.9900 . ?
C3 H3B 0.9900 . ?
C4 C5 1.392(3) . ?
C4 C9 1.395(3) . ?
C5 H5 0.9500 . ?
C5 C6 1.390(3) . ?
C6 H6 0.9500 . ?
C6 C7 1.383(3) . ?
C7 H7 0.9500 . ?
C7 C8 1.384(3) . ?
C8 H8 0.9500 . ?
C8 C9 1.385(3) . ?
C9 H9 0.9500 . ?

loop_
_geom_angle_atom_site_label_1
_geom_angle_atom_site_label_2
_geom_angle_atom_site_label_3
_geom_angle
_geom_angle_site_symmetry_1
_geom_angle_site_symmetry_3
_geom_angle_publ_flag
Cl1 Au1 Cl1 180.00(3) . 7_566 ?
Cl1 Au1 Cl2 90.57(2) 7_566 . ?
Cl1 Au1 Cl2 90.57(2) . 7_566 ?
Cl1 Au1 Cl2 89.43(2) . . ?
Cl1 Au1 Cl2 89.43(2) 7_566 7_566 ?
Cl2 Au1 Cl2 180.00(4) . 7_566 ?
C1 O1 H1 114(4) . . ?
C1 N1 C2 124.63(16) . . ?
C1 N1 C3 118.42(16) . . ?
C2 N1 C3 116.92(16) . . ?
O1 C1 N1 118.21(17) . . ?
O1 C1 C4 119.31(17) . . ?
N1 C1 C4 122.48(17) . . ?
N1 C2 H2A 109.5 . . ?
N1 C2 H2B 109.5 . . ?
N1 C2 H2C 109.5 . . ?
H2A C2 H2B 109.5 . . ?
H2A C2 H2C 109.5 . . ?
H2B C2 H2C 109.5 . . ?
N1 C3 C3 114.07(13) . 2_556 ?
N1 C3 H3A 108.7 . . ?
N1 C3 H3B 108.7 . . ?
C3 C3 H3A 108.7 2_556 . ?
C3 C3 H3B 108.7 2_556 . ?
H3A C3 H3B 107.6 . . ?
C5 C4 C1 118.55(17) . . ?
C5 C4 C9 120.39(18) . . ?
C9 C4 C1 120.79(17) . . ?
C4 C5 H5 120.3 . . ?
C6 C5 C4 119.42(19) . . ?
C6 C5 H5 120.3 . . ?
C5 C6 H6 120.0 . . ?
C7 C6 C5 119.9(2) . . ?
C7 C6 H6 120.0 . . ?
C6 C7 H7 119.6 . . ?
C6 C7 C8 120.75(19) . . ?
C8 C7 H7 119.6 . . ?
C7 C8 H8 120.1 . . ?
C7 C8 C9 119.8(2) . . ?
C9 C8 H8 120.1 . . ?
C4 C9 H9 120.2 . . ?
C8 C9 C4 119.66(19) . . ?
C8 C9 H9 120.2 . . ?

loop_
_geom_torsion_atom_site_label_1
_geom_torsion_atom_site_label_2
_geom_torsion_atom_site_label_3
_geom_torsion_atom_site_label_4
_geom_torsion
_geom_torsion_site_symmetry_1
_geom_torsion_site_symmetry_2
_geom_torsion_site_symmetry_3
_geom_torsion_site_symmetry_4
_geom_torsion_publ_flag
O1 C1 C4 C5 46.1(3) . . . . ?
O1 C1 C4 C9 -128.1(2) . . . . ?
N1 C1 C4 C5 -134.4(2) . . . . ?
N1 C1 C4 C9 51.4(3) . . . . ?
C1 N1 C3 C3 -97.5(2) . . . 2_556 ?
C1 C4 C5 C6 -174.83(18) . . . . ?
C1 C4 C9 C8 173.38(19) . . . . ?
C2 N1 C1 O1 -168.44(18) . . . . ?
C2 N1 C1 C4 12.0(3) . . . . ?
C2 N1 C3 C3 80.5(2) . . . 2_556 ?
C3 N1 C1 O1 9.4(3) . . . . ?
C3 N1 C1 C4 -170.13(17) . . . . ?
C4 C5 C6 C7 1.5(3) . . . . ?
C5 C4 C9 C8 -0.6(3) . . . . ?
C5 C6 C7 C8 -1.1(3) . . . . ?
C6 C7 C8 C9 -0.3(3) . . . . ?
C7 C8 C9 C4 1.1(3) . . . . ?
C9 C4 C5 C6 -0.7(3) . . . . ?

_shelx_res_file                  
;
TITL jl20012_refinalized_a.res in I2/a
    jl20012_refinalized.res
    created by SHELXL-2018/3 at 14:40:38 on 21-Jul-2021
REM Old TITL JL20012_refinalized in I2/c #15
REM SHELXT solution in I2/a: R1 0.060, Rweak 0.002, Alpha 0.041
REM <I/s> 0.925 for 74 systematic absences, Orientation as input
REM Formula found by SHELXT: C16 N4 O2 Cl4 Au
CELL 0.71073 12.0848 16.9574 16.5644 90 142.074 90
ZERR 4 0.0007 0.0002 0.001 0 0.013 0
LATT 2
SYMM 0.5-X,+Y,-Z
SFAC C H Au Cl N O
UNIT 72 84 4 16 8 8
DFIX 0.84 O1 H1

L.S. 8
PLAN  2
SIZE 0.059 0.126 0.242
TEMP -153.15
CONF
list 4
MORE -1
BOND $H
fmap 2 53
acta
REM <olex2.extras>
REM <HklSrc "%.\\jl20012_refinalized.hkl">
REM </olex2.extras>

WGHT    0.007300    4.328100
FVAR       0.22632
AU1   3    0.250000    0.750000    0.750000    10.50000    0.01110    0.01955 =
         0.01078   -0.00093    0.00867    0.00138
CL1   4   -0.042048    0.790670    0.576236    11.00000    0.01224    0.02795 =
         0.01749   -0.00006    0.00877    0.00380
CL2   4    0.154156    0.627041    0.729923    11.00000    0.01993    0.02298 =
         0.02118    0.00055    0.01453   -0.00173
O1    6    0.090119    0.538811    0.505597    11.00000    0.01146    0.01749 =
         0.01383    0.00419    0.00912   -0.00085
N1    5    0.358219    0.594101    0.638454    11.00000    0.01194    0.01247 =
         0.01305   -0.00004    0.00988   -0.00075
C1    1    0.260926    0.536020    0.612673    11.00000    0.01191    0.01361 =
         0.01272   -0.00002    0.01003    0.00002
C2    1    0.555400    0.592825    0.743958    11.00000    0.01137    0.02145 =
         0.01529   -0.00342    0.00971   -0.00405
AFIX 137
H2A   2    0.589349    0.611400    0.709579    11.00000   -1.50000
H2B   2    0.599290    0.538848    0.776925    11.00000   -1.50000
H2C   2    0.608949    0.627378    0.815670    11.00000   -1.50000
AFIX   0
C3    1    0.264385    0.664404    0.553823    11.00000    0.02023    0.00995 =
         0.02006   -0.00027    0.01754    0.00029
AFIX  23
H3A   2    0.334808    0.711782    0.609265    11.00000   -1.20000
H3B   2    0.145736    0.668355    0.512467    11.00000   -1.20000
AFIX   0
C4    1    0.342389    0.468668    0.703413    11.00000    0.01006    0.01616 =
         0.01399    0.00320    0.00983    0.00171
C5    1    0.284490    0.392740    0.651490    11.00000    0.01383    0.01615 =
         0.01654    0.00011    0.01224    0.00074
AFIX  43
H5    2    0.202029    0.384303    0.561054    11.00000   -1.20000
AFIX   0
C6    1    0.348372    0.329385    0.733108    11.00000    0.02258    0.01270 =
         0.03052    0.00322    0.02187    0.00321
AFIX  43
H6    2    0.311910    0.277226    0.699056    11.00000   -1.20000
AFIX   0
C7    1    0.465116    0.342359    0.863993    11.00000    0.02487    0.02233 =
         0.02856    0.01503    0.02242    0.01292
AFIX  43
H7    2    0.506826    0.298952    0.919058    11.00000   -1.20000
AFIX   0
C8    1    0.521828    0.417840    0.915617    11.00000    0.01827    0.02973 =
         0.01513    0.00632    0.01228    0.00568
AFIX  43
H8    2    0.601611    0.426131    1.005545    11.00000   -1.20000
AFIX   0
C9    1    0.461976    0.481285    0.835842    11.00000    0.01534    0.01881 =
         0.01570    0.00095    0.01156    0.00057
AFIX  43
H9    2    0.502181    0.533120    0.871158    11.00000   -1.20000
AFIX   0
PART -1
H1    2    0.034606    0.508040    0.502400    10.50000    0.01118
HKLF 4




REM  jl20012_refinalized_a.res in I2/a
REM wR2 = 0.0301, GooF = S = 1.071, Restrained GooF = 1.071 for all data
REM R1 = 0.0161 for 2397 Fo > 4sig(Fo) and 0.0203 for all 2669 data
REM 129 parameters refined using 1 restraints

END

WGHT      0.0073      4.3282

REM Highest difference peak  0.535,  deepest hole -0.527,  1-sigma level  0.086
Q1    1   0.3102  0.7570  0.7463  11.00000  0.05    0.54
Q2    1   0.2988  0.4988  0.6625  11.00000  0.05    0.44
;
_shelx_res_checksum              9658
_shelx_hkl_file                  
;
   0   0   2 7722.14  127.83
   0   0  -2 7423.85  123.30
   0   0   2 7290.50  128.15
   0   0  -2 7253.10  128.05
   0   0   2 7668.05  128.03
   0   0  -2 7577.47  127.76
   0   0  -2 7183.00  123.16
   0   0   2 6872.04  123.17
   0   0  -2 7537.51  122.99
   0   0   2 7472.58  127.92
   0   0  -2 7385.32  128.04
   0   0   4 4230.37   83.70
   0   0   4 4150.53   83.41
   0   0  -4 4179.61   75.40
   0   0   4 4131.40   84.34
   0   0  -4 4047.34   84.26
   0   0  -4 4142.29   83.59
   0   0   4 4259.60   84.07
   0   0  -4 4144.59   84.23
   0   0  -4 4143.98   75.53
   0   0   4 4202.96   76.02
   0   0   4 4286.13   84.33
   0   0  -4 4112.36   75.29
   0   0   6 4944.55  102.90
   0   0  -6 4664.49  103.70
   0   0  -6 4965.95   90.02
   0   0  -6 4780.22  102.76
   0   0  -6 4815.97   90.41
   0   0  -6 4775.26   90.60
   0   0   6 4959.38  103.74
   0   0  -8 2251.92   65.38
   0   0  -8 2420.90   51.10
   0   0   8 2271.77   66.02
   0   0  -8 2321.01   53.17
   0   0   8 2260.94   65.12
   0   0   8 2259.05   45.76
   0   0  -8 2367.30   68.09
   0   0  10 1483.83   56.59
   0   0 -10 1508.14   58.06
   0   0 -10 1521.59   56.45
   0   0  10 1504.27   55.58
   0   0 -12 1345.94   60.99
   0   0  12 1470.87   60.67
   0   0 -12 1420.73   61.18
   0  -1   3   18.59    3.57
   0   1   3   23.61    3.80
   0   1   3   25.47    3.94
   0  -1  -3   27.05    4.40
   0  -1   3   25.38    4.26
   0   1   3   26.34    4.31
   0   1  -3   30.39    4.53
   0  -1   3   33.85    4.49
   0   1  -3   24.92    2.90
   0  -1   3   28.41    3.14
   0   1  -3   22.64    4.42
   0  -1  -3   24.40    3.96
   0   1   3   24.59    2.41
   0  -1   3   25.15    4.09
   0   1   3   22.25    4.05
   0   1  -3   18.60    3.96
   0  -1   3   28.07    4.48
   0  -1  -3   33.21    4.45
   0   1   3   25.56    3.99
   0   1   3   26.23    1.88
   0  -1  -3   26.83    2.29
   0   1  -3   26.04    3.21
   0  -1   3   20.41    2.91
   0   1  -3   33.65    2.93
   0  -1   5  508.01   21.11
   0   1   5  494.62   21.06
   0   1  -5  518.15   16.41
   0  -1  -5  511.37   14.71
   0  -1  -5  521.92   22.30
   0   1   5  491.17   13.89
   0   1   5  487.77   21.75
   0   1  -5  506.82   22.04
   0  -1  -5  496.36   21.30
   0   1  -5  519.99   21.66
   0   1  -5  476.71   16.43
   0  -1  -5  489.93   14.26
   0  -1   5  510.34   17.09
   0   1  -5  506.25   15.49
   0  -1   5  514.18   21.77
   0   1   5  523.24   21.58
   0  -1  -5  478.95   16.00
   0   1  -7   -2.30    5.00
   0  -1  -7    2.69    4.29
   0  -1  -7    2.70    4.82
   0   1   7    3.34    1.51
   0   1  -7   -0.50    5.10
   0   1  -7    1.23    2.47
   0  -1  -7    1.63    1.83
   0  -1   7   -4.93    5.07
   0   1   7    3.32    4.76
   0  -1   7    2.92    4.21
   0   1   7    0.99    4.32
   0  -1  -7    1.76    2.18
   0   1  -7    7.30    3.26
   0   1  -9  254.81   20.56
   0  -1  -9  236.51   20.12
   0   1  -9  252.76   21.27
   0  -1  -9  260.32   21.32
   0   1  -9  260.66   13.53
   0  -1  -9  276.98   12.42
   0   1   9  263.79   21.04
   0  -1   9  248.76   20.51
   0  -1   9  252.66   20.12
   0   1   9  263.91   20.41
   0   1 -11   73.31   13.79
   0  -1 -11   94.99   15.62
   0  -1  11   70.08   13.42
   0   1  11   80.46   13.46
   0  -1  11   91.61   14.81
   0  -1 -11   72.48   13.17
   0   1 -11   99.29   15.32
   0  -2   2 2910.27   54.40
   0   2   2 2838.20   54.34
   0   2   2 2846.77   54.46
   0  -2   2 2836.14   54.48
   0  -2   2 2904.24   54.47
   0   2  -2 2904.62   54.46
   0   2   2 2834.18   54.49
   0  -2  -2 2793.73   54.23
   0   2   2 2848.91   55.47
   0   2  -2 2828.26   53.55
   0  -2   2 2862.36   53.64
   0   2   2 2890.64   51.59
   0  -2   2 2781.88   56.04
   0  -2  -2 2746.16   55.64
   0   2  -2 2802.35   56.10
   0  -2  -2 2849.73   51.85
   0  -2   2 2737.46   52.00
   0   2   2 2764.53   53.76
   0  -2   2 3012.00   55.59
   0   2  -2 2891.88   55.33
   0  -2   2 2874.81   50.79
   0   2   2 2804.32   50.98
   0   2  -2 2923.08   51.01
   0   2  -2 2889.53   54.14
   0  -2   2 2930.45   54.35
   0  -2  -2 2843.63   51.19
   0  -2  -2 2917.25   54.48
   0   2   2 2859.65   54.37
   0   2   4 2892.14   60.79
   0   2   4 2746.06   60.18
   0  -2   4 2769.67   60.16
   0  -2   4 2850.05   60.56
   0   2  -4 2786.73   60.52
   0  -2   4 2733.32   60.51
   0   2   4 2924.17   61.31
   0  -2  -4 2770.01   60.54
   0  -2   4 2749.36   56.17
   0   2  -4 2806.33   55.70
   0   2   4 2781.86   62.47
   0  -2  -4 2734.91   61.45
   0   2   4 2767.43   51.57
   0  -2   4 2829.16   62.36
   0   2  -4 2693.77   61.85
   0   2  -4 2776.99   61.61
   0  -2   4 2828.57   49.51
   0   2   4 2706.47   49.95
   0  -2  -4 2810.42   49.40
   0  -2   4 2822.20   56.84
   0   2  -4 2754.33   56.40
   0   2  -4 2701.23   49.78
   0  -2   4 2772.48   61.11
   0  -2  -4 2770.93   60.58
   0   2   4 2712.64   60.07
   0   2   6 5040.58  106.57
   0  -2   6 5023.75  106.41
   0  -2  -6 5371.18   92.27
   0   2  -6 5219.99   97.70
   0   2  -6 4997.82  109.03
   0   2   6 5088.59   90.73
   0  -2  -6 5000.99  108.04
   0  -2  -6 5112.07  107.43
   0   2  -6 5045.46  107.31
   0   2   6 5048.02   87.11
   0   2  -6 5032.49   98.52
   0  -2  -6 5108.00   90.50
   0  -2   6 5193.71   99.58
   0  -2   6 5231.64  108.23
   0   2   6 5098.28  107.33
   0   2  -6 5166.11   90.53
   0  -2  -6 4988.60   97.61
   0   2  -8  820.69   34.87
   0  -2  -8  780.75   34.06
   0  -2  -8  777.05   34.98
   0   2  -8  817.82   36.15
   0  -2  -8  800.52   21.51
   0   2  -8  810.84   25.92
   0  -2   8  761.34   33.37
   0   2   8  741.14   33.23
   0   2  -8  743.49   17.69
   0  -2  -8  752.65   26.26
   0   2   8  758.39   33.81
   0  -2   8  740.15   33.71
   0   2 -10 1480.97   55.78
   0  -2 -10 1424.87   54.93
   0   2 -10 1401.73   56.62
   0  -2 -10 1486.88   57.08
   0   2 -10 1481.87   40.62
   0   2  10 1410.29   42.84
   0  -2  10 1499.31   56.61
   0   2  10 1493.88   55.47
   0  -2  10 1410.19   53.98
   0  -2  12  856.87   47.05
   0  -2 -12  962.19   49.70
   0   2 -12  937.92   50.22
   0   2  12  946.39   47.88
   0  -2  12  892.96   46.29
   0   2 -12  894.23   47.65
   0  -2 -12  990.17   49.66
   0   3  -1  308.93    8.22
   0  -3   1  299.09    8.20
   0   3   1  294.70    8.17
   0  -3  -1  300.41    8.22
   0  -3  -1  300.39   10.90
   0  -3   1  282.33   10.06
   0   3  -1  305.18   10.34
   0  -3   1  287.71   10.58
   0   3   1  310.88   10.81
   0   3  -1  280.09    9.48
   0  -3   1  288.86    9.29
   0  -3  -1  282.42   10.12
   0   3   1  304.00   10.32
   0   3   1  294.15    9.69
   0   3  -1  301.72    9.83
   0   3  -1  304.97    9.35
   0  -3   1  297.68    9.63
   0  -3   1  286.14    9.14
   0  -3  -1  304.36    9.79
   0  -3   1  306.36   10.54
   0   3  -1  278.43   10.28
   0  -3   1  295.51    8.17
   0   3   1  310.97    8.32
   0  -3   1  300.81    8.14
   0   3   1  303.66    8.19
   0  -3   3  188.81    9.75
   0  -3   3  168.52    9.23
   0   3   3  164.45    9.49
   0   3   3  186.25    9.61
   0  -3  -3  184.54    9.68
   0   3  -3  178.39    9.64
   0  -3   3  189.83    9.76
   0   3   3  175.26    9.63
   0   3   3  180.09    9.96
   0   3  -3  172.98    8.84
   0  -3   3  183.47    9.21
   0  -3   3  176.45   10.51
   0   3  -3  177.87   10.79
   0  -3  -3  172.48   10.00
   0  -3  -3  177.48    8.00
   0   3   3  154.02    9.16
   0  -3   3  182.15   10.22
   0  -3   3  182.27    7.96
   0   3  -3  166.43    9.93
   0   3  -3  182.26    7.46
   0   3   3  167.06    7.17
   0  -3   3  184.74    7.20
   0  -3   3  168.68    9.04
   0   3  -3  168.95    9.25
   0  -3  -3  175.82    7.56
   0  -3  -3  183.61    9.54
   0  -3   3  184.73    6.99
   0  -3   5  244.05   14.25
   0   3   5  232.85   14.06
   0  -3  -5  231.91   14.14
   0   3  -5  249.22   14.63
   0   3  -5  242.51   12.17
   0  -3   5  263.17   12.89
   0   3   5  261.81    9.84
   0   3  -5  231.58   15.13
   0  -3  -5  239.12   14.85
   0  -3   5  250.55    8.50
   0   3   5  233.09    8.72
   0  -3  -5  248.91    7.17
   0   3  -5  256.58   12.93
   0  -3   5  264.21   13.25
   0  -3   5  242.25   14.68
   0   3   5  246.11   14.51
   0  -3  -5  238.83   14.22
   0   3   7    9.34    4.73
   0  -3   7   18.14    5.82
   0  -3  -7   15.30    2.89
   0   3  -7   18.44    4.41
   0  -3  -7   12.43    4.92
   0   3  -7   13.64    5.84
   0   3  -7   10.98    5.04
   0  -3  -7   13.00    5.37
   0   3   7    9.43    4.03
   0   3   7   13.42    5.64
   0  -3   7   13.73    5.41
   0  -3   7   12.52    1.60
   0   3   7   11.50    1.90
   0  -3  -7   11.52    3.80
   0   3  -9    2.01    3.44
   0   3  -9   -7.09    6.58
   0  -3  -9   -6.78    6.08
   0  -3   9   -0.22    5.57
   0   3   9    3.60    5.64
   0  -3  -9   -0.94    5.42
   0   3  -9    0.16    5.37
   0   3   9    0.85    3.37
   0  -3   9    0.01    5.83
   0   3 -11  148.54   18.49
   0  -3 -11  159.46   19.48
   0  -3  11  172.29   18.83
   0   3  11  187.90   19.64
   0  -3  11  160.00   18.80
   0   3 -11  168.41   19.38
   0  -3 -11  178.33   19.96
   0  -4   0 1430.06   31.42
   0   4   0 1458.16   31.49
   0  -4   0 1435.38   28.18
   0   4   0 1421.04   31.36
   0  -4   0 1437.91   31.49
   0   4   0 1467.73   27.54
   0  -4   0 1432.76   31.04
   0  -4   0 1421.71   33.86
   0   4   0 1419.14   33.88
   0  -4   0 1462.75   31.22
   0  -4   0 1394.91   32.55
   0   4   0 1437.38   31.14
   0  -4   2  651.09   17.39
   0   4   2  672.45   17.54
   0   4   2  628.00   17.14
   0  -4   2  652.41   17.27
   0  -4   2  645.11   17.26
   0  -4  -2  641.88   17.51
   0   4   2  620.23   17.31
   0   4  -2  660.42   17.43
   0  -4  -2  619.29   20.02
   0  -4   2  675.96   19.51
   0   4  -2  677.49   21.03
   0   4   2  659.42   20.11
   0   4  -2  640.08   19.21
   0  -4   2  674.20   20.54
   0  -4  -2  653.74   18.49
   0  -4  -2  692.20   19.82
   0  -4   2  658.71   17.51
   0   4  -2  652.79   17.98
   0  -4   2  616.56   18.58
   0   4   2  635.54   19.10
   0   4  -2  652.71   17.80
   0   4   2  631.63   17.77
   0  -4   2  642.72   18.61
   0  -4   2  641.82   17.61
   0  -4  -2  645.01   17.93
   0  -4   2  667.84   19.83
   0   4  -2  640.38   19.78
   0  -4  -2  664.76   17.97
   0  -4   4 1764.45   42.82
   0   4   4 1783.69   43.10
   0  -4   4 1667.57   42.09
   0   4   4 1722.11   42.54
   0  -4   4 1799.83   43.27
   0  -4  -4 1693.64   42.45
   0   4   4 1763.40   42.99
   0   4  -4 1708.66   42.68
   0   4  -4 1781.22   41.47
   0   4   4 1806.81   44.11
   0  -4   4 1758.53   41.78
   0   4  -4 1679.62   45.49
   0  -4  -4 1707.23   38.98
   0  -4   4 1757.91   45.69
   0  -4  -4 1781.29   45.22
   0  -4   4 1721.36   37.93
   0   4   4 1650.93   41.95
   0  -4   4 1780.93   36.63
   0   4   4 1707.28   36.98
   0   4  -4 1721.55   36.97
   0  -4   4 1777.60   44.29
   0   4  -4 1734.33   42.47
   0  -4  -4 1724.00   37.47
   0  -4   4 1768.27   42.70
   0  -4  -4 1782.26   43.03
   0  -4   4 1769.03   36.38
   0  -4   4 1791.98   44.42
   0   4   6 1395.65   41.94
   0  -4   6 1309.09   40.97
   0  -4  -6 1392.73   42.34
   0   4  -6 1337.42   41.54
   0  -4   6 1342.85   37.89
   0   4   6 1313.84   40.71
   0   4  -6 1378.93   37.32
   0   4  -6 1336.40   44.02
   0  -4  -6 1341.74   42.73
   0   4   6 1404.73   38.23
   0  -4   6 1266.08   34.05
   0  -4   6 1383.44   29.59
   0   4   6 1412.88   30.75
   0   4  -6 1337.13   38.42
   0  -4   6 1341.40   42.30
   0  -4  -8  687.81   31.90
   0   4  -8  753.34   33.37
   0  -4  -8  726.13   18.88
   0   4  -8  684.38   25.99
   0   4  -8  717.56   34.75
   0  -4  -8  736.58   33.95
   0  -4   8  609.60   23.39
   0   4   8  665.47   26.83
   0   4   8  709.80   17.35
   0   4   8  707.01   32.18
   0  -4   8  707.05   32.10
   0  -4   8  708.34   33.17
   0  -4 -10  493.73   30.59
   0   4 -10  400.99   27.60
   0  -4 -10  448.96   29.61
   0   4 -10  426.04   30.18
   0   4 -10  492.86   22.65
   0   4  10  463.51   22.82
   0  -4  10  469.67   30.17
   0   4  10  494.70   30.27
   0  -4  10  480.23   29.49
   0  -4  12  837.39   46.63
   0  -4 -12  931.26   49.10
   0   4 -12  905.30   49.80
   0   4  12  919.94   47.27
   0  -4  12  840.77   45.22
   0  -4 -12  949.29   48.71
   0   4 -12  949.99   48.69
   0   5  -1  411.51    9.91
   0  -5  -1  390.03    9.81
   0  -5   1  395.49    9.80
   0   5   1  406.96    9.97
   0  -5  -1  395.41   13.17
   0  -5   1  398.32   14.39
   0  -5  -1  415.35   15.63
   0   5   1  411.93   15.39
   0   5  -1  401.96   14.64
   0   5  -1  409.45   13.97
   0   5   1  392.74   14.45
   0  -5   1  407.06   13.88
   0  -5  -1  382.12   14.61
   0  -5   1  402.56   14.08
   0  -5   1  376.95   12.08
   0   5   1  399.81   14.24
   0   5   1  385.12   11.24
   0   5  -1  392.32   12.19
   0  -5  -1  374.58   13.88
   0   5  -1  405.73   14.33
   0  -5   1  398.41   16.83
   0   5   1  365.45   15.84
   0  -5  -1  398.24   12.89
   0  -5   1  418.85   14.95
   0   5   1  398.95    9.87
   0  -5   1  398.51    9.84
   0  -5   1  391.51    9.74
   0   5   1  412.81    9.98
   0  -5   3  458.82   16.30
   0  -5   3  509.88   17.12
   0   5   3  470.92   16.55
   0   5   3  496.21   17.00
   0   5   3  505.10   17.25
   0   5  -3  506.65   17.10
   0  -5  -3  490.66   16.93
   0  -5   3  469.80   16.72
   0   5  -3  500.79   18.34
   0  -5   3  501.27   18.27
   0   5  -3  489.92   20.07
   0   5   3  492.04   18.95
   0  -5  -3  491.44   19.71
   0  -5   3  511.20   20.01
   0  -5  -3  510.09   17.13
   0  -5   3  502.76   18.28
   0   5  -3  503.10   17.30
   0  -5   3  495.60   15.83
   0   5   3  519.00   18.34
   0  -5   3  498.35   16.03
   0   5   3  492.37   16.42
   0  -5   3  497.94   18.33
   0  -5  -3  480.04   16.39
   0   5  -3  476.92   16.33
   0   5  -3  525.08   19.29
   0  -5   3  512.65   18.98
   0  -5  -3  525.31   17.33
   0  -5   5   44.69    6.54
   0   5   5   50.50    6.93
   0  -5  -5   39.00    6.12
   0   5  -5   30.46    5.78
   0   5  -5   43.20    6.15
   0   5   5   42.41    6.33
   0  -5   5   54.92    6.61
   0  -5  -5   38.50    6.52
   0  -5  -5   44.49    5.49
   0   5  -5   34.05    6.93
   0  -5   5   45.33    7.23
   0  -5   5   46.76    5.08
   0   5   5   42.66    6.40
   0  -5   5   44.50    4.46
   0   5  -5   44.18    6.34
   0   5   5   41.08    4.68
   0  -5  -5   40.96    4.66
   0  -5   5   51.58    4.68
   0   5  -7   53.36    7.48
   0   5  -7   62.25   10.03
   0  -5  -7   58.54    9.10
   0   5   7   61.99    8.14
   0  -5   7   45.75    5.28
   0  -5   7   59.23    9.31
   0  -5   7   57.39    4.71
   0   5   7   70.88    5.65
   0  -5  -7   61.18    9.58
   0   5  -7   54.31    8.91
   0   5   7   62.02    8.72
   0  -5   7   62.08    9.07
   0   5  -9   22.21    5.86
   0  -5  -9   13.11    6.94
   0   5  -9   14.12    6.69
   0  -5   9   17.36    7.70
   0   5   9   24.74    7.94
   0  -5  -9   22.03    8.13
   0   5  -9   18.67    7.14
   0   5   9   17.34    5.64
   0  -5   9    7.50    5.60
   0   5 -11   41.57   11.43
   0  -5 -11   39.04   10.41
   0   5  11   53.80   12.25
   0  -5  11   44.91   11.71
   0   5 -11   29.45   10.34
   0  -5 -11   61.29   13.48
   0   5  11   57.18    9.03
   0  -5  11   32.31   10.02
   0  -6   0 2755.71   57.09
   0   6   0 2748.94   57.12
   0   6   0 2737.75   50.44
   0  -6   0 2620.99   51.53
   0  -6   0 2695.63   58.74
   0   6   0 2665.15   56.45
   0  -6   0 2815.49   56.64
   0  -6   0 2825.47   56.56
   0   6   0 2637.64   60.29
   0  -6   0 2732.42   61.14
   0  -6   0 2877.62   57.33
   0   6   0 2800.97   56.95
   0  -6  -2 2919.91   57.35
   0   6  -2 3074.76   57.61
   0   6   2 3123.88   57.76
   0  -6   2 3094.46   57.58
   0  -6   2 3051.02   64.07
   0   6  -2 3083.08   64.28
   0  -6   2 3138.38   65.33
   0  -6  -2 2993.03   65.82
   0  -6  -2 3002.48   59.89
   0   6   2 3092.65   65.57
   0  -6   2 3103.48   61.38
   0  -6  -2 3248.83   65.13
   0   6  -2 3055.40   62.03
   0   6   2 3027.82   63.67
   0   6   2 2998.16   62.31
   0  -6  -2 3211.27   63.13
   0  -6   2 3006.18   60.92
   0   6  -2 3048.69   62.45
   0  -6   2 3076.39   62.20
   0   6   2 3019.54   68.94
   0  -6  -2 3010.57   58.35
   0  -6   2 3128.76   65.02
   0  -6   2 2889.13   68.45
   0  -6   2 3051.79   57.54
   0  -6   2 3012.14   57.27
   0   6   2 3055.13   57.51
   0   6   2 3003.91   57.67
   0   6   4 1949.22   45.80
   0  -6   4 1886.15   45.37
   0  -6   4 1850.69   44.92
   0   6   4 1916.41   45.48
   0  -6   4 1950.58   45.59
   0  -6  -4 1879.10   45.45
   0   6   4 1983.22   45.95
   0   6  -4 1874.58   45.37
   0   6  -4 1968.00   47.33
   0   6   4 1900.52   48.42
   0   6  -4 1889.01   50.85
   0  -6   4 1918.94   47.34
   0  -6  -4 1805.16   48.80
   0  -6  -4 1848.08   44.42
   0  -6   4 1853.97   42.40
   0  -6   4 1854.98   47.05
   0   6   4 1775.72   46.12
   0   6  -4 1889.51   43.32
   0  -6   4 1924.51   42.65
   0  -6   4 1916.82   47.66
   0   6   4 1871.78   43.17
   0   6  -4 1912.20   48.28
   0  -6  -4 1810.59   35.94
   0  -6  -4 1924.27   43.93
   0  -6  -4 1984.27   46.19
   0  -6   6 2088.76   56.57
   0   6   6 2248.46   58.08
   0   6  -6 2217.44   58.00
   0  -6  -6 2192.38   57.97
   0   6  -6 2312.89   63.54
   0   6  -6 2272.64   55.92
   0  -6  -6 2152.66   59.83
   0  -6  -6 2198.24   52.81
   0  -6   6 2148.81   49.27
   0   6   6 2123.94   55.42
   0  -6   6 2232.46   48.08
   0   6   6 2233.68   49.19
   0  -6  -6 2271.96   50.32
   0  -6   6 2344.50   44.73
   0  -6   6 2200.31   59.44
   0   6  -8 1635.23   52.95
   0  -6  -8 1525.71   51.67
   0   6  -8 1581.75   46.48
   0   6  -8 1547.89   55.29
   0  -6  -8 1670.27   34.50
   0  -6  -8 1564.82   53.53
   0  -6   8 1456.19   39.30
   0   6   8 1584.74   46.65
   0   6   8 1597.39   37.34
   0   6   8 1558.51   51.64
   0  -6   8 1605.89   51.84
   0  -6   8 1490.97   51.99
   0  -6 -10  981.45   44.64
   0   6 -10  931.36   43.64
   0  -6 -10 1047.07   46.47
   0   6 -10 1023.46   37.18
   0   6 -10 1026.19   48.76
   0   6  10  955.59   36.39
   0  -6  10  970.12   43.56
   0   6  10 1038.05   45.29
   0  -6  10 1006.28   45.60
   0  -6 -12  852.61   46.53
   0   6 -12  895.56   47.16
   0   6 -12  886.72   50.47
   0  -6 -12  838.48   46.29
   0  -6  12  859.28   46.46
   0   6  12  893.65   46.65
   0  -6  12  869.24   45.60
   0  -7   1  375.09    8.98
   0   7   1  393.65    9.29
   0  -7   1  373.51   15.86
   0  -7  -1  390.28   15.15
   0  -7  -1  390.70   17.55
   0   7  -1  378.78   16.19
   0   7  -1  371.40   15.42
   0   7   1  379.51   16.22
   0  -7  -1  406.40   16.53
   0  -7   1  367.97   15.22
   0   7   1  379.20   15.98
   0   7  -1  365.74   15.70
   0   7  -1  366.66   12.53
   0  -7   1  396.87   13.44
   0  -7   1  386.69   15.93
   0   7   1  362.91   12.00
   0  -7  -1  376.62   15.83
   0  -7   1  392.37   16.29
   0  -7  -1  395.49   14.82
   0  -7   1  368.00   18.59
   0   7   1  357.87   17.94
   0   7   1  373.79    9.04
   0   7   1  386.74    9.17
   0  -7   1  368.08    8.96
   0  -7   1  383.32    9.01
   0   7   3   72.63    6.16
   0   7   3   90.65    6.74
   0  -7   3   85.88    6.41
   0  -7   3   85.89    6.32
   0  -7  -3   75.61    6.22
   0  -7   3   91.02    6.57
   0   7   3   86.50    6.67
   0   7  -3   85.88    6.66
   0  -7  -3   92.83    9.17
   0   7  -3   93.65    8.69
   0   7   3  102.40    9.20
   0  -7  -3   86.60    6.44
   0  -7   3   76.03    7.97
   0  -7  -3   84.46    7.90
   0  -7   3   98.18    7.91
   0   7  -3   77.97    7.37
   0   7   3   96.88    8.59
   0  -7   3   93.98    7.20
   0  -7   3   84.47    7.35
   0   7  -3   97.92    7.96
   0   7   3   93.27    7.89
   0  -7   3   90.76    7.46
   0  -7  -3   87.00    7.63
   0  -7  -3   91.46    5.87
   0  -7  -3   86.82    6.92
   0  -7   5   15.14    3.96
   0   7   5   17.54    4.49
   0   7  -5   24.27    5.17
   0  -7  -5   20.16    5.12
   0   7  -5   17.41    4.94
   0  -7  -5   25.52    6.22
   0  -7  -5   23.01    4.52
   0   7  -5   43.19    8.38
   0  -7   5   13.96    3.10
   0  -7   5   36.02    6.50
   0   7   5   26.21    6.08
   0   7  -5   24.39    4.40
   0   7   5   23.58    4.23
   0  -7   5   18.91    3.42
   0  -7  -5   19.55    4.09
   0  -7  -5   24.76    2.36
   0  -7   5   22.60    3.68
   0  -7  -7  720.49   31.10
   0   7  -7  800.00   32.28
   0   7  -7  816.38   36.32
   0   7  -7  743.07   29.34
   0  -7  -7  795.33   33.86
   0  -7  -7  750.99   27.77
   0  -7   7  729.16   24.13
   0   7   7  743.58   29.51
   0  -7   7  759.36   23.43
   0   7   7  753.80   24.21
   0   7   7  752.58   31.53
   0  -7   7  708.95   30.34
   0  -7   7  706.03   31.65
   0  -7   7  713.74   16.27
   0   7  -9   10.18    5.42
   0  -7  -9   22.37    8.89
   0   7  -9    5.61    7.84
   0   7   9   11.28    7.64
   0  -7   9   21.05    8.11
   0  -7  -9   25.45    8.49
   0   7  -9    0.43    6.20
   0   7   9    1.16    4.07
   0  -7   9    3.95    5.83
   0  -7 -11    3.49    6.75
   0   7 -11   15.41    8.22
   0  -7  11    4.60    6.99
   0   7  11    0.02    6.37
   0  -7 -11   -2.20    6.38
   0   7 -11    0.42    6.07
   0  -7  11   -1.81    6.83
   0   7  11    0.09    4.52
   0  -8   0 3056.10   59.04
   0   8   0 2969.27   57.45
   0  -8   0 3088.96   66.41
   0   8   0 3114.04   66.80
   0  -8   0 3198.21   69.84
   0  -8   0 3120.98   65.98
   0   8   0 2957.60   71.31
   0  -8   0 2946.40   71.05
   0  -8   0 3133.99   65.65
   0  -8   0 3136.72   66.66
   0   8   0 3127.16   66.58
   0  -8  -2 5857.56  104.96
   0   8   2 6108.11  105.33
   0  -8   2 5951.52  104.93
   0   8  -2 6194.16  105.35
   0  -8   2 5978.08  117.54
   0  -8  -2 6003.84  112.03
   0  -8  -2 5798.34  118.93
   0   8  -2 6055.70  117.17
   0   8  -2 6131.78  114.78
   0  -8   2 6245.46  113.98
   0   8   2 6077.19  116.79
   0   8  -2 6084.92  115.43
   0  -8   2 6180.44  115.24
   0   8   2 5805.12  114.89
   0  -8  -2 6037.86  115.35
   0   8   2 5678.34  107.50
   0  -8   2 5908.28  110.76
   0  -8   2 5404.06  121.70
   0  -8  -2 6158.27  110.59
   0   8   2 5957.57  123.00
   0  -8   2 5915.57  104.77
   0   8   2 6010.40  105.21
   0   8   2 6017.46  105.02
   0  -8   2 6074.33  105.19
   0  -8   4 2963.36   63.95
   0   8   4 2947.13   64.13
   0   8   4 3110.82   64.70
   0  -8   4 2996.97   63.91
   0  -8   4 2957.64   63.79
   0  -8  -4 2891.80   63.86
   0   8   4 3050.07   64.60
   0   8  -4 3060.80   64.54
   0  -8  -4 3011.05   73.33
   0   8  -4 3047.36   69.95
   0  -8  -4 3073.23   61.59
   0  -8  -4 2939.49   67.01
   0   8  -4 3033.71   67.48
   0   8   4 2998.38   68.74
   0  -8   4 2887.83   66.95
   0  -8   4 2948.04   63.67
   0   8   4 2941.09   65.60
   0   8  -4 2994.67   65.93
   0  -8   4 2981.24   64.86
   0  -8  -4 2996.17   57.64
   0  -8  -4 2852.64   64.87
   0   8  -6 1511.21   44.85
   0  -8  -6 1468.76   44.51
   0   8  -6 1508.11   50.89
   0   8  -6 1539.16   45.73
   0  -8  -6 1503.23   35.25
   0  -8  -6 1519.98   48.33
   0  -8  -6 1487.53   42.82
   0  -8   6 1463.61   38.73
   0   8   6 1477.03   44.95
   0   8   6 1482.96   40.16
   0   8  -6 1551.92   40.67
   0  -8   6 1499.75   39.11
   0  -8   6 1500.44   44.45
   0   8   6 1492.87   44.54
   0  -8   6 1481.05   46.24
   0  -8   6 1542.62   37.71
   0  -8  -8 1801.14   56.87
   0   8  -8 1781.05   56.60
   0   8  -8 1848.41   54.05
   0   8  -8 1782.48   62.43
   0  -8  -8 1780.08   58.60
   0   8   8 1692.43   52.47
   0   8   8 1800.73   45.08
   0   8   8 1842.31   56.91
   0  -8   8 1741.01   55.48
   0  -8   8 1811.10   58.56
   0   8 -10 1211.96   50.29
   0  -8 -10 1087.68   48.07
   0  -8 -10 1142.79   50.04
   0   8 -10 1222.94   44.05
   0   8 -10 1205.10   54.89
   0   8  10 1111.07   42.42
   0  -8  10 1176.03   50.57
   0  -8  10 1194.62   48.99
   0   8  10 1227.84   50.14
   0  -8  12  472.64   34.54
   0  -8 -12  471.35   34.38
   0   8  12  536.43   35.67
   0  -8  12  557.01   35.98
   0  -8 -12  544.11   36.50
   0   8 -12  512.50   35.50
   0   9   1  157.40   11.50
   0   9  -1  164.43   11.58
   0   9   1  181.71   12.11
   0   9  -1  156.82    8.44
   0   9   1  169.42    8.01
   0  -9   1  146.21    8.90
   0   9  -1  180.25   12.27
   0  -9  -1  171.32   10.78
   0  -9   1  163.70   13.47
   0  -9  -1  154.88   12.44
   0  -9   1  155.62   12.42
   0   9  -1  148.00   11.20
   0  -9  -1  172.92   11.02
   0  -9   3  276.82   11.83
   0  -9   3  269.30   11.59
   0   9   3  294.99   12.33
   0   9   3  273.67   11.78
   0  -9  -3  252.39   11.60
   0   9  -3  285.11   11.94
   0   9   3  267.85   11.66
   0  -9   3  272.65   11.78
   0  -9  -3  277.31   17.68
   0  -9  -3  268.44   13.37
   0   9  -3  257.87   15.62
   0  -9  -3  265.27   15.68
   0  -9   3  280.22   14.01
   0   9  -3  261.18   14.77
   0   9   3  286.23   16.49
   0   9   3  281.35   15.52
   0  -9   3  290.83   14.62
   0   9  -3  273.21   15.30
   0  -9  -3  277.62   12.57
   0  -9   3  281.83   19.44
   0  -9  -3  284.13   13.09
   0  -9  -5   36.42    4.85
   0   9  -5   44.67    7.52
   0  -9  -5   43.14    6.87
   0  -9  -5   39.45    7.16
   0   9  -5   37.59    6.06
   0  -9  -5   47.76    6.83
   0   9   5   34.11    6.57
   0  -9   5   37.28    6.18
   0   9   5   40.50    6.29
   0   9  -5   48.93    6.79
   0  -9  -5   38.63    3.80
   0  -9   5   31.65    5.60
   0   9   5   49.09    6.83
   0  -9   7   84.84   10.53
   0   9   7   81.47   10.36
   0   9  -7   70.56    9.63
   0   9  -7   89.81   13.09
   0  -9  -7   64.48   10.31
   0  -9  -7   78.43    9.45
   0  -9  -7   68.88    9.41
   0   9  -7   79.21   10.42
   0  -9   7   89.13   11.33
   0   9   7   70.77    9.74
   0   9   7   75.90    8.08
   0  -9   7   79.18    7.07
   0   9  -9   31.71    7.55
   0  -9   9   22.59    7.64
   0   9   9   18.51    6.48
   0  -9  -9   17.86    8.10
   0   9  -9   33.38   10.15
   0   9  -9   24.67    7.57
   0  -9  -9   26.56    7.66
   0  -9   9   20.47    8.30
   0   9   9   32.05    8.60
   0   9 -11   64.34   10.75
   0  -9 -11   84.62   15.10
   0   9 -11   96.44   17.79
   0   9  11  126.75   17.13
   0  -9  11   81.93   13.54
   0   9 -11   70.39   13.42
   0  -9 -11   96.93   15.03
   0  -9  11   98.97   15.11
   0   9  11   67.82   11.10
   0  10   0 1334.11   39.83
   0  10   0 1348.72   30.52
   0 -10   0 1437.83   43.28
   0 -10   0 1331.86   44.52
   0  10   0 1386.97   39.99
   0 -10   2 1896.90   37.67
   0  10  -2 1897.17   51.90
   0 -10  -2 1901.53   54.58
   0  10   2 1961.95   51.98
   0  10  -2 1970.43   50.65
   0  10   2 1878.15   50.47
   0  10  -2 1951.41   51.05
   0  10   2 1927.59   42.69
   0 -10   2 1983.51   46.39
   0 -10  -2 1970.98   46.88
   0 -10   2 1872.00   57.44
   0 -10   2 1922.83   37.65
   0 -10   2 1936.43   37.81
   0  10   2 1958.94   38.00
   0  10   2 1979.91   37.96
   0 -10   4 2765.98   59.94
   0  10   4 2913.39   61.11
   0 -10   4 2798.24   60.57
   0  10   4 2680.78   60.33
   0  10  -4 2842.73   61.39
   0  10   4 2852.45   61.10
   0 -10   4 2740.95   60.13
   0 -10  -4 2812.88   60.63
   0  10  -4 2790.26   69.77
   0 -10  -4 2669.39   60.99
   0 -10  -4 2714.20   72.81
   0 -10  -4 2780.16   68.18
   0 -10   4 2723.09   64.79
   0  10  -4 2855.76   67.50
   0  10   4 2838.35   69.32
   0  10  -4 2851.35   66.66
   0  10   4 2854.33   66.83
   0 -10   4 2584.96   77.17
   0 -10  -4 2686.81   57.74
   0 -10  -4 2823.37   62.30
   0  10   6  837.56   31.01
   0 -10   6  820.63   30.51
   0 -10  -6  825.50   31.04
   0  10  -6  849.62   31.43
   0 -10  -6  779.51   24.86
   0  10  -6  846.14   34.26
   0 -10  -6  848.82   32.09
   0 -10  -6  811.82   34.72
   0  10   6  794.97   32.80
   0  10  -6  853.76   30.49
   0  10   6  800.01   29.78
   0 -10  -6  805.48   19.64
   0 -10   6  839.28   27.29
   0 -10   6  833.10   33.20
   0 -10  -8 1443.34   50.16
   0  10  -8 1530.82   51.39
   0  10  -8 1454.66   57.37
   0  10  -8 1543.10   51.33
   0 -10  -8 1579.12   48.76
   0 -10  -8 1410.25   52.61
   0  10   8 1465.85   49.76
   0  10   8 1526.41   43.68
   0  10   8 1475.99   50.31
   0 -10   8 1438.81   49.37
   0 -10   8 1497.03   53.04
   0  10 -10  503.34   31.40
   0 -10 -10  527.55   32.29
   0 -10 -10  485.95   32.00
   0  10 -10  491.08   35.30
   0  10 -10  553.83   30.19
   0  10  10  513.91   28.76
   0 -10  10  469.34   31.40
   0 -10  10  441.67   28.97
   0  10  10  497.09   30.97
   0 -10 -12  253.33   25.43
   0  10 -12  225.55   23.83
   0 -10 -12  257.44   25.38
   0  10  12  250.98   24.32
   0 -10  12  254.33   24.39
   0 -11  -1    7.60    5.73
   0 -11   1    2.78    3.55
   0  11   1   11.66    5.42
   0  11  -1   10.91    4.61
   0  11  -1    7.89    2.61
   0  11   1    3.73    1.72
   0 -11   1    5.71    3.11
   0  11  -1    3.82    3.71
   0  11   1    3.05    4.59
   0 -11   1    2.86    4.30
   0  11   3    6.14    2.34
   0 -11   3    4.51    1.90
   0 -11  -3    6.43    2.18
   0 -11   3    6.50    2.15
   0  11   3   11.54    2.84
   0  11   3    9.77    2.43
   0 -11   3    3.23    1.83
   0  11  -3    6.72    4.75
   0 -11  -3    8.50    5.40
   0 -11  -3   10.34    5.41
   0 -11  -3    9.59    3.18
   0  11   3   -0.14    4.33
   0  11  -3    9.08    4.40
   0 -11   3    3.49    3.37
   0  11   3   10.64    3.97
   0 -11   3   13.23    4.67
   0  11  -3   10.82    4.82
   0  11   3   -0.87    4.21
   0 -11  -3    8.14    3.11
   0 -11   3    0.15    5.00
   0 -11   5   72.05    7.49
   0  11   5   78.00    8.16
   0 -11  -5   84.56   11.87
   0  11  -5   69.31    9.56
   0 -11  -5   90.22   11.11
   0 -11  -5   85.86   10.30
   0  11  -5   97.42    9.29
   0 -11  -5   72.42    7.80
   0  11  -5   76.87    9.61
   0  11   5   71.90   10.19
   0 -11   5   81.09    9.37
   0 -11  -5   67.12    6.12
   0  11  -5   92.00   10.47
   0  11   5   86.79   10.06
   0 -11   5   67.72   11.48
   0 -11   7    8.74    5.01
   0  11   7   13.03    5.18
   0  11  -7    2.32    5.17
   0 -11  -7    8.03    6.42
   0 -11  -7    7.31    5.03
   0  11  -7   10.56    5.21
   0 -11  -7   12.87    5.24
   0 -11   7    6.62    4.54
   0  11   7   11.93    5.81
   0  11   7   -2.37    4.35
   0 -11   7   10.29    3.99
   0  11  -9   96.43   13.13
   0 -11  -9   73.97   12.98
   0 -11   9   65.91   11.01
   0  11   9   84.97   12.50
   0  11  -9   75.33   11.78
   0 -11  -9   95.34   12.93
   0  11   9   97.20   13.10
   0 -11   9   76.39   13.00
   0 -11 -11    3.68    6.92
   0  11  11    2.85    6.50
   0 -11  11    0.97    6.63
   0 -11  11    1.18    7.38
   0  11  11   -0.72    6.12
   0  11 -11    0.58    5.97
   0 -11 -11    8.56    7.12
   0  12   0  476.92   23.33
   0  12   0  444.57   14.97
   0  12   0  464.36   23.07
   0 -12   0  449.47   26.41
   0 -12   0  460.35   24.92
   0 -12  -2 1537.48   48.51
   0  12  -2 1523.28   46.39
   0  12   2 1500.40   47.14
   0 -12   2 1476.36   40.37
   0  12  -2 1537.67   46.87
   0  12   2 1556.64   35.80
   0  12   2 1556.11   47.10
   0 -12   2 1495.48   53.11
   0 -12   2 1542.75   50.40
   0 -12  -2 1531.51   50.54
   0  12   4  864.24   25.99
   0 -12   4  844.01   25.83
   0  12   4  842.91   26.01
   0 -12   4  847.02   25.75
   0 -12  -4  893.64   26.35
   0  12   4  861.98   26.09
   0 -12   4  839.04   25.72
   0 -12  -4  875.57   38.20
   0  12  -4  899.27   35.94
   0 -12  -4  859.33   34.33
   0  12   4  869.74   34.82
   0 -12   4  879.58   30.94
   0  12  -4  830.73   33.11
   0  12   4  863.08   33.41
   0  12   4  812.97   28.15
   0  12  -4  914.00   34.09
   0 -12   4  805.92   40.07
   0 -12  -4  853.22   27.37
   0 -12  -4  856.53   28.13
   0 -12   6  574.69   24.78
   0  12   6  592.94   25.43
   0  12  -6  634.42   26.39
   0 -12  -6  583.49   25.12
   0  12  -6  561.28   29.44
   0 -12  -6  584.00   28.47
   0 -12  -6  594.52   30.43
   0  12   6  574.97   29.24
   0  12  -6  599.53   27.31
   0  12   6  600.88   27.56
   0 -12   6  528.77   35.77
   0 -12   6  574.11   27.65
   0 -12  -8  923.51   37.98
   0  12  -8  869.76   37.51
   0  12  -8  887.10   39.98
   0 -12  -8  840.13   40.16
   0 -12  -8  963.12   38.78
   0  12   8  871.11   38.63
   0  12   8  941.22   35.05
   0 -12   8  840.24   38.94
   0  12   8  918.84   37.85
   0 -12   8  865.27   36.52
   0 -12  10  984.43   47.11
   0 -12 -10 1066.46   49.36
   0 -12 -10 1063.03   46.98
   0  12 -10 1027.12   46.39
   0  12  10 1128.52   47.89
   0 -12  10 1016.26   45.24
   0  12  10 1030.18   44.99
   0 -12 -12  280.81   26.29
   0 -12  12  290.52   26.23
   0  12  12  283.72   26.04
   0 -13   1   86.02   11.94
   0 -13  -1   83.23   11.76
   0  13   1   86.30   10.84
   0  13  -1   83.11   10.28
   0  13   1   94.11    6.28
   0 -13   1   99.62    8.25
   0  13   1   93.37   11.07
   0  13  -1   94.29   10.97
   0 -13   1  109.50   13.79
   0 -13   3   36.43    3.55
   0  13   3   36.63    3.80
   0 -13   3   33.07    3.48
   0  13   3   32.23    3.60
   0 -13   3   25.63    7.59
   0 -13  -3   48.92   10.31
   0 -13  -3   28.51    7.49
   0 -13  -3   35.32    5.30
   0  13   3   25.68    7.07
   0 -13   3   31.80    5.20
   0  13  -3   37.80    8.25
   0  13   3   35.83    5.00
   0  13  -3   28.75    6.61
   0  13   3   33.95    7.52
   0 -13   3   48.30   11.14
   0 -13   5   31.79    5.21
   0  13   5   33.93    5.65
   0  13  -5   28.28    7.61
   0 -13  -5   39.92    9.94
   0 -13  -5   40.75    7.90
   0 -13  -5   39.65    5.98
   0 -13   5   28.75    6.69
   0  13  -5   35.31    8.35
   0  13   5   34.04    8.59
   0  13  -5   25.19    6.51
   0  13   5   44.68    8.73
   0 -13   5   35.69   10.14
   0 -13   7    1.92    4.09
   0  13   7    7.78    5.04
   0  13  -7    4.65    6.11
   0 -13  -7   10.18    6.37
   0 -13  -7    2.97    4.42
   0 -13   7   -5.68    8.20
   0  13   7    9.79    7.44
   0 -13   7   -4.73    5.30
   0  13  -7   11.79    5.56
   0  13   7    2.62    4.40
   0 -13  -7   -2.05    4.04
   0  13  -7    2.57    4.32
   0 -13  -9  110.65   15.41
   0  13   9   90.67   12.96
   0 -13   9  109.54   13.61
   0  13  -9  114.64   14.40
   0 -13  -9  118.14   14.73
   0 -13   9   79.17   13.09
   0  13   9  117.11   15.33
   0 -13  11    8.36    7.99
   0  13  11   10.14    7.42
   0 -13 -11   12.53    9.01
   0  14   0 1598.89   51.49
   0  14   0 1641.47   36.70
   0  14   0 1636.17   52.12
   0 -14   0 1498.71   56.19
   0 -14   0 1583.28   54.50
   0 -14  -2 1670.75   53.89
   0  14  -2 1613.01   50.87
   0  14   2 1511.98   50.65
   0 -14   2 1543.83   40.76
   0 -14   2 1415.56   42.28
   0  14  -2 1597.06   51.00
   0  14   2 1548.50   35.01
   0  14   2 1653.57   51.89
   0 -14   2 1461.61   56.38
   0 -14  -2 1596.02   55.75
   0 -14   2 1540.09   54.18
   0 -14  -4 1290.51   51.19
   0 -14  -4 1349.04   48.19
   0 -14   4 1306.70   40.30
   0  14  -4 1235.38   44.96
   0  14   4 1318.68   47.53
   0  14   4 1319.67   46.24
   0  14   4 1249.40   36.81
   0  14  -4 1332.88   46.38
   0 -14   4 1266.83   55.02
   0  14   4 1340.73   33.13
   0 -14   4 1241.31   32.05
   0 -14   6  294.18   20.01
   0 -14  -6  313.46   22.14
   0 -14  -6  333.22   23.57
   0  14   6  293.99   22.37
   0  14  -6  357.58   22.40
   0  14   6  333.42   21.94
   0 -14   6  259.20   26.43
   0 -14   6  349.85   18.81
   0  14   6  329.28   18.01
   0 -14  -8 1152.34   49.10
   0  14   8 1238.78   49.43
   0  14   8 1156.92   43.42
   0 -14   8 1071.70   59.06
   0 -14   8 1108.57   46.22
   0  14  10  514.45   32.39
   0 -14  10  408.72   30.04
   0 -14 -10  454.13   32.54
   0 -15  -1  215.66   19.35
   0  15  -1  246.77   19.14
   0  15   1  238.46   18.93
   0  15  -1  240.83   19.09
   0  15   1  227.74    9.78
   0  15   1  233.43   18.52
   0 -15   1  233.99   19.84
   0 -15  -1  184.76   18.31
   0 -15   1  193.18   19.80
   0 -15   3   -0.07    6.18
   0 -15  -3    3.38    5.36
   0 -15   3   14.22    4.68
   0  15  -3   10.47    5.48
   0  15   3    8.56    6.78
   0 -15  -3   17.41    7.56
   0  15   3   11.51    6.01
   0  15  -3    7.78    6.00
   0 -15   3    8.74    8.59
   0 -15  -5   21.25    8.37
   0 -15  -5   29.17    8.03
   0  15   5   16.53    6.90
   0  15  -5   22.56    7.97
   0 -15   5   32.21   11.49
   0  15  -5   10.91    6.53
   0 -15   5   14.62    4.66
   0  15   5   19.93    7.47
   0 -15  -7    5.90    6.45
   0 -15  -7    2.17    6.21
   0  15  -7    2.80    5.03
   0  15   7   -0.37    4.91
   0 -15   7   17.08    9.15
   0  15   7    3.32    7.31
   0 -15   7   -5.28    6.05
   0  15   9    9.76    6.89
   0 -15   9    7.30    7.03
   0 -15  -9   23.24    9.08
   0 -15   9    6.37   10.09
   0  16   0  294.04   21.75
   0  16   0  293.88   21.74
   0 -16   0  281.33   24.26
   0 -16   0  276.84   23.20
   0 -16  -2 1577.25   56.30
   0 -16   2 1514.15   41.01
   0  16  -2 1562.16   53.72
   0  16   2 1572.12   54.90
   0  16   2 1519.21   53.77
   0  16  -2 1582.61   54.16
   0 -16   2 1480.16   60.53
   0 -16  -2 1545.18   58.48
   0 -16   2 1477.42   56.66
   0 -16  -4 1504.70   59.59
   0 -16   4 1428.04   56.58
   0 -16  -4 1389.94   53.73
   0  16   4 1490.30   55.00
   0  16  -4 1513.86   53.40
   0  16   4 1495.56   53.02
   0  16  -4 1592.06   54.75
   0 -16   4 1385.90   61.36
   0 -16   4 1444.30   44.08
   0 -16  -6  758.63   38.03
   0 -16  -6  749.99   37.90
   0  16   6  748.00   38.86
   0  16  -6  749.28   38.02
   0  16   6  807.38   37.73
   0  16  -6  773.44   37.03
   0 -16   6  745.10   46.92
   0 -16   6  736.98   33.32
   0 -16  -8  617.35   35.61
   0  16   8  540.03   34.08
   0  16   8  583.92   31.98
   0 -16   8  533.91   42.47
   0 -16   8  539.98   31.35
   0 -17   1   37.04   10.94
   0 -17  -1   31.61   10.52
   0  17   1   49.04   10.72
   0  17  -1   27.08    9.08
   0 -17  -1   38.36   10.00
   0  17   1   31.66    7.89
   0  17  -1   43.39   10.04
   0 -17   1   25.49   10.47
   0 -17   3    5.40    6.81
   0 -17  -3   10.15    8.27
   0  17   3   -0.02    6.80
   0  17  -3    2.55    5.34
   0 -17  -3   -0.29    6.39
   0  17   3   -0.79    6.25
   0  17  -3   -8.68    6.94
   0 -17   3   13.92   10.43
   0 -17   5   34.67   11.48
   0 -17  -5   19.35   10.30
   0  17   5   17.84    8.76
   0  17  -5   12.98    8.78
   0 -17  -5   38.33   10.70
   0  17   5   18.13    7.93
   0  17  -5   27.63    9.44
   0 -17   5   13.06   10.29
   0 -17   7   88.09   15.63
   0 -17  -7   99.46   15.06
   0 -17  -7   85.76   14.56
   0  17   7   90.95   15.52
   0  17   7   87.22   13.64
   0  17  -7  108.44   14.67
   0 -17   7   70.69   17.35
   0  18   0  795.17   39.65
   0  18   0  790.29   39.29
   0 -18   0  777.54   41.00
   0 -18   0  771.85   41.97
   0 -18  -2  769.67   40.42
   0  18   2  814.02   40.50
   0  18  -2  802.75   39.20
   0  18   2  785.51   39.41
   0  18  -2  796.64   39.62
   0 -18   2  748.15   44.44
   0 -18  -2  735.65   41.94
   0 -18   2  807.27   43.26
   0 -18  -4  629.00   36.75
   0  18   4  615.95   36.04
   0  18  -4  663.51   36.06
   0  18   4  661.86   35.92
   0  18  -4  651.26   36.50
   0 -18   4  600.93   41.33
   0 -18   4  599.13   37.31
   0 -18  -4  676.77   41.35
   0 -18  -6  560.94   35.11
   0 -18  -6  518.85   33.38
   0  18   6  541.87   34.62
   0  18  -6  547.85   34.38
   0  18  -6  547.36   33.11
   0  18   6  520.16   32.44
   0 -18   6  540.36   36.07
   0 -18  -6  563.21   39.69
   0 -18   6  543.14   42.50
   0  18   8  453.66   30.11
   0 -18   8  468.04   35.27
   0 -19   1   19.71    9.91
   0 -19  -1   15.13   10.01
   0  19   1   12.00    7.85
   0  19  -1   15.87    8.73
   0 -19  -1   11.71    8.60
   0 -19   1   20.29    8.93
   0  19  -1   13.33    6.85
   0  19   1   19.41    9.91
   0 -19   1    3.71    7.56
   0 -19  -3    8.30    7.93
   0 -19   3   -4.00    6.42
   0  19   3    6.33    8.14
   0  19  -3    7.45    7.42
   0 -19  -3   -0.25    6.63
   0  19  -3   -0.36    5.74
   0  19   3    1.13    6.18
   0 -19   3   11.49   11.11
   0 -19  -5   11.48   10.59
   0 -19   5    5.42    9.18
   0 -19  -5   -7.59    8.63
   0  19   5   -8.65    8.07
   0  19  -5   -7.38    8.09
   0  19   5    1.21    6.40
   0  19  -5   -4.87    6.15
   0 -19   5    3.23    8.12
   0  19   7   67.04   12.78
   0  20   0  311.41   26.34
   0  20   0  321.87   26.70
   0 -20   0  298.45   26.69
   0 -20   0  294.32   27.91
   0 -20   2  167.94   21.32
   0 -20  -2  188.55   23.66
   0  20  -2  184.32   19.72
   0  20   2  221.30   22.75
   0 -20  -2  202.85   22.74
   0 -20   2  209.28   22.63
   0  20   2  196.08   21.27
   0  20  -2  179.50   20.95
   0 -20   2  142.42   21.21
   0 -20  -4  153.75   22.00
   0 -20   4  166.85   21.08
   0 -20  -4  166.76   20.66
   0  20   4  146.69   19.10
   0  20  -4  175.16   19.75
   0  20   4  158.79   19.52
   0  20  -4  172.63   20.71
   0 -20   4  154.80   22.59
   0  20   6  241.86   23.62
   0  20  -6  214.46   22.43
   0 -20  -6  222.22   23.68
   0  21   1   19.81    9.57
   0  21  -1   34.66   10.56
   0 -21   1   21.54   10.24
   0 -21  -1   23.50   10.36
   0  21  -1   10.20    8.79
   0  21   1   15.29    9.31
   0 -21   1    8.79    9.74
   0 -21  -1   19.71   11.43
   0 -21  -3    5.39    7.98
   0  21  -3   -6.26    8.08
   0 -21   3   14.26   12.44
   0  21  -3   -0.40    7.59
   0  21  -5   33.30   11.65
   0 -21  -5   32.40   11.20
   0 -22   2  247.30   29.57
  -1   0  13    5.05    9.13
   1   0 -13   17.32    9.69
  -1   0  13   -3.73    6.70
   1   0 -13   -1.44    7.26
  -1   0  11   -5.60    7.42
   1   0 -11   -0.14    5.79
  -1   0  11   -6.10    6.43
   1   0 -11    0.14    5.74
   1   0  -9   -1.02    1.72
   1   0  -9    7.93    6.37
   1   0  -9    6.03    5.31
  -1   0   9   -6.25    5.51
   1   0  -9    4.60    3.30
  -1   0   9   -1.78    6.32
  -1   0   7   -3.06    4.25
   1   0  -7   -4.08    3.83
   1   0  -7   -0.18    4.50
   1   0  -7    0.25    1.41
  -1   0   7    3.86    4.75
  -1   0   7   -1.47    1.73
   1   0  -7    0.22    2.16
   1   0  -5    6.50    3.72
  -1   0   5    7.45    3.19
   1   0  -5    2.42    3.04
  -1   0   5    3.96    2.96
  -1   0   5    2.69    1.58
   1   0  -5    0.68    1.16
  -1   0   5    1.46    2.87
   1   0  -5    4.98    3.99
  -1   0   5    5.54    3.39
   1   0  -5    1.66    2.58
  -1   0   5    0.41    1.32
   1   0  -5    2.47    1.93
   1   0  -3    4.80    2.13
  -1   0   3    1.79    2.05
  -1   0   3    3.95    2.14
  -1   0   3    4.40    1.97
   1   0  -3    2.77    1.92
  -1   0   3    4.92    1.95
  -1   0   3   -1.39    1.80
   1   0  -3    1.04    2.06
   1   0  -3    2.05    2.29
  -1   0   3    1.64    1.94
  -1   0  -1    5.62    2.07
  -1   0  -1    6.08    2.35
   1   0   1    3.90    2.24
  -1   0  -1    1.31    2.11
   1   0   1    6.45    2.28
   1   0   1    1.85    2.12
  -1   0  -1    3.50    2.19
  -1   0  -3    1.52    2.11
  -1   0  -3   -0.74    3.06
   1   0   3   -0.96    2.63
  -1   0  -3   -2.51    2.85
   1   0   3   -2.31    2.44
  -1   0  -3   -0.07    2.53
   1   0   3    2.43    3.46
  -1   0  -3    0.73    2.08
   1   0   3    1.26    3.48
  -1   0  -3   -2.30    2.33
   1   0   5    0.54    4.18
  -1   0  -5    2.71    2.59
  -1   0  -5   -3.66    4.23
  -1   0  -5   -0.57    3.54
   1   0   5   -0.03    4.02
  -1   0  -5    1.28    2.35
  -1   0  -5    2.23    1.77
   1   0   7    4.78    5.43
  -1   0  -7    2.03    2.66
   1   0   7   -1.14    2.22
  -1   0  -7   -8.12    7.00
  -1   0  -7   12.87    6.08
   1   0   7    4.71    4.91
  -1   0  -7    1.92    2.73
  -1   0  -7    1.18    2.47
   1   0   9   10.68    7.28
  -1   0  -9    5.46    7.71
  -1   0  -9   -7.24    6.13
   1   0  11   -3.72    6.65
  -1   0 -11   -3.64    7.08
  -1   0 -11   -6.14    8.19
   1  -1 -12 1093.06   49.78
   1   1 -12 1127.53   50.79
   1   1 -12 1044.65   50.72
   1  -1 -12 1113.16   51.93
  -1  -1  12 1045.95   47.81
  -1   1  12 1112.84   49.22
  -1  -1  12 1161.10   51.35
  -1   1  12 1149.71   50.72
   1   1 -10 1163.48   30.60
   1  -1 -10 1142.32   26.68
   1   1 -10 1125.66   46.99
   1  -1 -10 1154.77   47.18
   1  -1 -10 1127.09   45.20
   1   1 -10 1097.13   44.59
  -1  -1  10 1013.58   43.18
  -1   1  10 1049.19   43.55
  -1   1  10 1137.69   44.38
  -1  -1  10 1073.83   43.26
  -1   1   8 4112.24   93.11
  -1  -1   8 3987.10   92.39
   1   1  -8 4050.03   93.42
   1  -1  -8 4005.18   93.12
   1  -1  -8 4244.84   73.99
   1   1  -8 4111.65   77.98
   1  -1  -8 3847.80   94.62
   1   1  -8 3993.16   95.52
  -1  -1   8 4062.94   70.88
  -1   1   8 4040.75   71.25
  -1  -1   8 4201.00   81.42
   1   1  -8 3724.00   83.67
  -1  -1   8 4037.60   93.97
  -1   1   8 3881.76   92.08
   1  -1  -8 4190.27   84.97
  -1   1   6 5373.09  107.83
  -1  -1   6 5380.41  107.85
   1  -1  -6 5392.12  108.04
   1   1  -6 5264.24  107.58
   1   1  -6 5393.08   96.80
  -1  -1   6 5416.49   97.82
   1  -1  -6 5544.25   92.83
   1  -1  -6 5338.78  109.80
   1   1  -6 5248.43  109.86
   1  -1  -6 5402.48  108.08
  -1   1   6 5289.66   94.24
  -1   1   6 5397.66   94.63
  -1  -1   6 5596.89   99.45
  -1   1   6 5329.23  107.73
   1  -1  -6 5399.94  101.75
   1   1  -6 5267.14  102.50
  -1  -1   6 5540.38  108.78
  -1  -1   4 3619.31   70.16
   1  -1  -4 3525.24   69.87
  -1   1   4 3668.26   70.34
   1   1  -4 3555.65   69.94
   1   1  -4 3576.10   70.18
  -1  -1   4 3615.33   70.14
  -1   1   4 3555.52   70.03
   1  -1  -4 3542.10   69.91
   1   1  -4 3588.05   63.82
  -1  -1   4 3547.70   63.89
   1  -1  -4 3538.86   71.89
   1   1  -4 3482.99   71.08
  -1  -1   4 3655.59   71.27
  -1   1   4 3611.34   72.22
   1  -1  -4 3705.72   69.95
  -1  -1   4 3428.47   70.20
  -1  -1   4 3555.89   70.12
  -1  -1   4 3447.64   65.13
  -1   1   4 3620.04   61.18
   1   1  -4 3414.90   68.70
  -1   1   4 3575.32   69.65
   1  -1  -4 3495.19   67.28
  -1  -1   4 3525.75   66.20
   1   1   2 2645.27   55.74
   1  -1   2 2714.54   56.06
  -1   1  -2 2724.18   56.07
  -1  -1  -2 2624.60   55.75
  -1   1  -2 2689.62   53.22
   1   1   2 2665.92   55.54
   1  -1   2 2669.97   56.67
  -1   1  -2 2699.39   56.82
  -1  -1  -2 2685.55   55.34
   1   1   2 2824.21   56.61
  -1  -1  -2 2707.77   56.24
   1  -1   2 2679.47   56.21
  -1   1  -2 2709.16   56.30
   1   1   2 2547.26   49.67
  -1   1  -2 2680.53   53.09
   1  -1   2 2759.41   56.43
  -1  -1  -2 2757.28   56.70
  -1   1  -2 2737.49   56.40
   1   1   4 4829.51   99.26
   1  -1   4 4813.71   99.10
  -1   1  -4 4808.17   92.19
  -1  -1  -4 4892.79   91.04
   1   1   4 4954.63  100.45
   1   1   4 4919.49   92.55
  -1   1  -4 4654.41   99.89
  -1  -1  -4 4667.93   98.91
  -1  -1  -4 4892.52   99.78
  -1   1  -4 4779.52   99.52
  -1  -1  -4 4819.63   89.17
  -1   1  -4 4848.18   92.37
  -1   1  -4 4935.00   83.70
   1  -1   4 4906.77  100.12
   1   1   4 4822.63   99.89
   1   1   6 1251.83   41.86
   1  -1   6 1226.57   41.64
  -1   1  -6 1244.96   34.02
  -1  -1  -6 1227.69   32.33
  -1  -1  -6 1250.72   42.65
  -1   1  -6 1182.38   42.19
   1   1   6 1183.98   31.86
  -1   1  -6 1208.43   41.83
  -1  -1  -6 1226.79   42.13
   1   1   6 1175.69   31.73
  -1  -1  -6 1202.16   31.17
  -1   1  -6 1259.96   34.32
   1   1   6 1217.26   42.05
  -1   1  -6 1222.82   26.90
  -1  -1  -6 1207.72   30.74
   1  -1   6 1196.55   41.81
   1   1   8  959.29   41.05
   1  -1   8  986.09   41.42
  -1  -1  -8 1016.52   29.70
  -1   1  -8 1057.93   32.22
  -1  -1  -8  949.26   41.89
  -1   1  -8  929.71   41.91
  -1   1  -8 1014.25   42.52
  -1  -1  -8 1041.11   43.20
   1   1   8  911.86   29.40
  -1  -1  -8  969.18   28.97
  -1   1  -8 1019.31   32.30
   1  -1   8  959.52   41.89
  -1   1 -10 1317.24   55.65
  -1  -1 -10 1416.63   57.42
  -1  -1 -10 1405.87   57.79
  -1   1 -10 1371.08   57.96
   1   1  10 1346.76   55.64
   1  -1  10 1353.40   55.43
  -1  -2  13    3.56    7.96
   1  -2 -13   17.78    9.15
   1   2 -13   18.19    9.53
   1   2 -13   12.73    9.29
   1  -2 -13    3.14   10.07
  -1  -2  13   29.21   12.74
  -1   2  13   11.88    8.90
  -1   2  11  152.74   17.21
  -1  -2  11  120.17   15.58
   1  -2 -11  116.47   15.17
   1   2 -11  126.83   15.58
   1   2 -11  144.48   17.30
   1  -2 -11  144.17   17.43
  -1  -2  11  141.44   16.10
  -1   2  11  106.46   14.46
  -1   2   9    9.29    5.97
  -1  -2   9   11.69    4.80
   1  -2  -9   11.39    1.98
   1   2  -9   10.23    3.27
   1  -2  -9   15.96    7.27
   1   2  -9   17.35    6.86
   1  -2  -9   15.29    6.29
   1   2  -9   19.25    6.84
  -1   2   9   14.25    6.43
  -1  -2   9    8.05    5.47
  -1  -2   9   11.00    3.53
  -1  -2   9    9.79    1.41
  -1   2   9   11.05    1.89
   1   2  -9    8.65    3.02
   1  -2  -9   11.35    3.86
  -1  -2   7    3.53    4.28
  -1   2   7   10.42    4.19
   1   2  -7   11.18    4.56
   1  -2  -7   10.31    4.12
  -1  -2   7   15.85    3.50
   1  -2  -7   16.94    1.93
   1   2  -7   12.84    3.24
   1  -2  -7   21.03    5.48
   1   2  -7   11.70    4.30
  -1  -2   7   18.74    5.48
  -1   2   7   17.18    5.05
  -1  -2   7   16.64    3.46
  -1  -2   7   16.18    2.31
  -1   2   7   16.79    2.63
   1  -2  -7   19.60    4.27
   1   2  -7   18.94    3.81
  -1   2   5    3.51    3.60
   1   2  -5   -1.24    3.21
   1  -2  -5    3.48    3.07
  -1   2   5    0.24    2.34
  -1  -2   5   -1.33    2.54
  -1   2   5   -0.87    2.35
  -1  -2   5    0.86    2.21
   1   2  -5    1.61    2.04
  -1   2   5    1.02    2.09
  -1  -2   5    4.13    2.34
  -1  -2   5   -2.64    2.66
   1  -2  -5   -0.39    3.30
   1   2  -5    4.43    4.12
  -1   2   5    0.65    2.88
  -1  -2   5   -1.06    3.05
   1  -2  -5    3.42    2.31
  -1   2   5    0.41    2.84
  -1  -2   5   -1.65    2.78
  -1  -2   5   -0.11    1.43
  -1   2   5    2.37    1.80
  -1  -2   5   -1.31    1.79
   1   2  -5    2.17    1.98
   1  -2  -5   10.70    3.58
  -1  -2   5    0.25    1.81
   1   2  -3  238.20    9.40
   1  -2  -3  239.58    9.42
  -1  -2   3  246.36    9.58
  -1   2   3  228.29    9.20
  -1  -2   3  217.55    9.02
   1  -2  -3  224.38    9.18
  -1   2   3  238.63    9.29
   1   2  -3  227.13    9.31
   1  -2  -3  220.52    8.26
   1   2  -3  220.35    8.25
  -1  -2   3  229.99    8.35
  -1   2   3  217.22    7.83
   1   2  -3  217.19    9.66
  -1  -2   3  224.95    9.63
   1  -2  -3  241.96    8.83
  -1  -2   3  216.54    9.57
  -1  -2   3  216.25    7.88
   1   2  -3  233.32    9.90
  -1   2   3  212.68    8.13
  -1  -2   3  238.51    9.68
   1   2  -3  210.12    8.70
  -1   2   3  221.01    8.58
  -1  -2  -1  887.80   22.17
   1   2   1  889.36   22.12
   1  -2   1  900.39   22.36
  -1   2  -1  889.36   22.20
  -1   2  -1  896.55   22.15
  -1  -2  -1  839.99   22.01
   1  -2   1  847.77   22.17
   1   2   1  898.02   22.38
   1  -2   1  923.74   22.71
  -1   2  -1  874.06   22.03
  -1   2  -1  894.00   23.79
   1   2   1  908.68   22.00
  -1  -2  -1  898.74   21.55
  -1  -2  -1  871.59   22.61
   1   2   1  879.29   21.79
   1  -2   1  841.65   23.37
  -1  -2  -1  772.90   20.34
   1   2   1  895.77   20.06
  -1   2  -1  894.43   18.68
  -1  -2  -1  884.67   18.90
   1   2   1  880.04   19.03
   1  -2   1  931.32   19.04
   1  -2   1  896.05   22.43
  -1   2  -1  887.72   22.25
  -1   2  -1  837.58   22.17
   1  -2   1  883.99   22.18
  -1   2  -3  147.48    9.85
   1   2   3  118.79    9.11
  -1  -2  -3  137.58    9.78
   1  -2   3  134.78    9.68
   1   2   3  139.19    9.69
  -1   2  -3  147.87   10.06
   1  -2   3  145.05   10.13
  -1  -2  -3  129.18    9.63
  -1   2  -3  130.85    8.45
  -1  -2  -3  141.06    9.71
   1   2   3  143.41   10.14
  -1   2  -3  124.73   10.11
   1  -2   3  146.83   10.59
   1   2   3  127.69    7.73
  -1   2  -3  138.03    9.99
   1   2   3  136.18    7.66
  -1   2  -3  137.63    4.82
   1   2   3  129.69    5.04
  -1  -2  -3  139.01    5.27
   1  -2   3  153.30    9.15
  -1   2  -3  136.46    8.62
  -1  -2  -3  146.11   10.00
   1  -2   3  120.60    9.34
  -1   2  -5    2.04    2.60
  -1  -2  -5    1.91    2.43
   1   2   5    3.12    2.34
  -1  -2  -5    7.16    4.17
  -1   2  -5   -0.84    4.37
  -1   2  -5    4.63    4.18
  -1  -2  -5    5.01    4.74
   1  -2   5   -0.05    3.73
   1   2   5    6.50    2.90
  -1  -2  -5   -0.60    1.81
  -1   2  -5    2.03    2.77
   1  -2   5   10.36    4.91
   1   2   5    3.06    3.81
   1  -2   7   51.48    9.36
   1   2   7   56.65    9.86
  -1   2  -7   36.71    6.01
  -1  -2  -7   46.32    5.37
  -1  -2  -7   43.05    8.63
  -1   2  -7   52.17    9.64
   1   2   7   49.80    5.35
  -1   2  -7   74.36   10.73
  -1  -2  -7   54.28    9.68
   1  -2   7   48.67    9.13
   1   2   7   47.40    5.96
  -1  -2  -7   48.39    5.09
  -1   2  -7   42.26    6.49
  -1  -2  -7   53.91    6.32
  -1   2  -9   87.33   13.86
  -1  -2  -9   84.36   13.76
  -1   2  -9   94.40    9.41
   1   2   9   92.05    8.79
   1  -2   9   69.76   12.94
  -1   2  -9   71.53   12.41
  -1  -2  -9   67.89   12.44
   1  -2   9   73.64   12.44
   1   2   9   83.90   12.99
  -1  -2 -11   18.55   10.40
  -1   2 -11    9.76    8.74
   1  -2  11   11.05    8.54
   1   2  11    8.86    8.68
  -1  -2 -11   16.58    9.17
  -1   2 -11    5.93    7.47
   1   3 -12  991.82   50.05
   1  -3 -12 1025.42   49.48
  -1  -3  12 1010.92   47.92
  -1   3  12  996.75   38.69
  -1  -3  12 1090.27   48.40
  -1   3  12 1138.87   49.45
   1   3 -12  982.41   47.44
   1  -3 -12 1096.03   49.70
   1   3 -10  711.53   34.85
   1  -3 -10  674.72   34.26
   1   3 -10  683.72   36.03
   1  -3 -10  676.88   35.24
   1   3 -10  735.98   25.51
  -1  -3  10  708.47   34.11
  -1   3  10  712.34   34.31
  -1  -3  10  701.24   34.79
  -1   3  10  735.32   34.94
   1   3  -8 1676.29   50.39
   1  -3  -8 1578.15   49.16
   1   3  -8 1656.32   40.71
   1  -3  -8 1603.92   29.69
  -1  -3   8 1665.59   42.25
  -1   3   8 1551.09   44.29
   1   3  -8 1582.82   51.66
   1  -3  -8 1496.82   50.15
  -1  -3   8 1631.54   33.52
  -1   3   8 1608.83   34.41
   1  -3  -8 1611.23   43.97
  -1  -3   8 1638.63   50.44
  -1   3   8 1607.39   49.27
   1   3  -8 1593.84   36.19
  -1  -3   8 1709.37   49.89
  -1   3   8 1680.02   49.86
  -1  -3   6 1291.11   38.08
  -1   3   6 1335.77   38.57
   1   3  -6 1353.99   38.89
   1  -3  -6 1395.50   39.17
  -1  -3   6 1362.31   34.06
   1   3  -6 1383.82   33.84
  -1   3   6 1365.03   35.66
   1  -3  -6 1377.52   41.24
   1   3  -6 1288.27   40.15
  -1  -3   6 1353.34   39.51
   1  -3  -6 1404.80   38.61
  -1  -3   6 1359.24   29.96
  -1   3   6 1298.28   30.19
  -1  -3   6 1420.59   35.65
   1   3  -6 1341.41   31.16
  -1  -3   6 1383.88   31.48
   1  -3  -6 1422.16   36.61
  -1   3   6 1392.76   38.69
  -1  -3   4 1156.78   29.44
   1  -3  -4 1141.40   29.32
  -1   3   4 1160.89   29.52
   1   3  -4 1184.31   29.53
   1  -3  -4 1160.40   29.35
  -1   3   4 1158.40   29.46
   1   3  -4 1148.48   29.44
  -1  -3   4 1143.32   29.26
  -1   3   4 1124.59   27.51
   1   3  -4 1120.23   27.55
  -1  -3   4 1169.28   27.72
   1  -3  -4 1148.48   24.56
  -1  -3   4 1184.50   30.84
   1   3  -4 1093.44   30.60
   1  -3  -4 1122.01   32.11
  -1  -3   4 1118.92   29.40
   1  -3  -4 1119.35   28.66
  -1  -3   4 1136.08   30.49
  -1  -3   4 1230.85   30.87
  -1  -3   4 1135.11   25.93
  -1   3   4 1143.54   26.43
  -1  -3   4 1138.01   28.56
  -1   3   4 1162.80   28.61
  -1  -3   4 1124.98   28.47
  -1  -3   2 8422.24  143.62
  -1   3   2 8496.95  143.61
   1  -3  -2 9041.62  143.90
   1   3  -2 8688.69  145.64
   1  -3  -2 8817.05  146.39
  -1  -3   2 8751.52  146.60
  -1  -3   2 8237.90  146.10
  -1  -3   2 8616.47  145.35
   1   3  -2 8765.63  147.46
   1  -3  -2 8182.23  141.24
  -1  -3   2 8403.27  146.64
   1   3  -2 8981.64  146.83
  -1  -3   2 8782.12  146.49
   1   3  -2 8766.74  146.55
  -1  -3   2 8788.60  146.75
   1  -3  -2 9057.61  147.08
  -1   3   2 8118.38  142.99
  -1   3   2 8659.72  146.63
  -1   3   2 8776.10  150.80
   1  -3  -2 8768.49  143.59
   1  -3  -2 8047.62  143.30
  -1   3   2 8878.40  143.93
   1   3  -2 8881.41  143.80
  -1  -3   2 8247.06  143.48
  -1  -3   0 1824.43   34.97
   1  -3   0 1807.77   34.84
  -1   3   0 1775.52   34.83
   1   3   0 1815.77   35.00
  -1   3   0 1814.70   34.94
  -1  -3   0 1825.59   35.03
   1  -3   0 1793.07   34.95
   1  -3   0 1881.30   38.12
  -1   3   0 1832.45   37.67
  -1  -3   0 1748.33   39.20
   1   3   0 1751.10   39.27
  -1  -3   0 1782.38   37.95
   1   3   0 1763.24   37.68
  -1   3   0 1830.50   34.64
   1  -3   0 1837.07   34.66
  -1   3   0 1817.81   34.52
   1   3   0 1811.19   36.68
  -1  -3   0 1751.02   36.64
  -1   3   0 1803.90   36.07
  -1  -3   0 1809.69   36.36
   1   3   0 1845.36   36.52
   1  -3   0 1836.22   38.12
  -1   3   0 1840.47   38.00
   1  -3   0 1857.99   36.42
   1  -3   0 1791.40   34.54
  -1  -3  -2 1643.82   37.70
   1   3   2 1572.37   37.23
   1  -3   2 1533.21   36.87
  -1   3  -2 1627.85   37.46
   1   3   2 1621.81   37.76
   1  -3   2 1551.43   37.44
  -1   3  -2 1568.87   37.40
  -1  -3  -2 1614.34   37.57
  -1   3  -2 1587.39   37.00
  -1   3  -2 1585.36   39.97
   1  -3   2 1607.64   37.63
  -1  -3  -2 1595.38   37.19
   1   3   2 1556.95   38.34
  -1  -3  -2 1603.17   37.22
   1  -3   2 1553.27   39.88
   1   3   2 1540.05   35.29
   1  -3   2 1543.54   30.53
  -1   3  -2 1568.43   38.12
   1   3   2 1556.62   34.84
  -1  -3  -2 1590.06   32.31
   1   3   2 1566.43   32.39
  -1   3  -2 1595.56   31.85
   1  -3   2 1623.77   37.94
  -1   3  -2 1633.48   37.67
   1  -3   2 1626.22   32.15
  -1  -3  -2 1587.85   38.15
   1  -3   2 1610.67   37.74
   1   3   4 3977.35   84.49
   1  -3   4 4050.00   84.72
  -1   3  -4 4021.44   85.07
  -1  -3  -4 3989.28   84.92
  -1   3  -4 3864.96   79.77
   1  -3   4 3885.14   81.29
  -1  -3  -4 3953.51   84.63
  -1   3  -4 3815.76   86.53
   1   3   4 3954.92   76.50
   1   3   4 4041.40   86.24
   1   3   4 3969.14   77.88
   1  -3   4 3835.30   72.09
   1   3   4 4011.81   70.80
  -1  -3  -4 3910.79   72.18
   1  -3   4 4050.76   81.83
  -1   3  -4 3951.09   80.87
  -1  -3  -4 3964.17   71.05
   1  -3   4 4031.18   69.89
   1  -3   4 3926.99   85.28
   1  -3   6 1578.05   49.16
   1   3   6 1768.85   51.39
  -1  -3  -6 1638.84   39.01
  -1   3  -6 1681.12   43.78
  -1  -3  -6 1577.93   49.83
  -1   3  -6 1574.89   51.84
   1   3   6 1583.50   38.34
  -1   3  -6 1739.44   51.67
  -1  -3  -6 1649.58   50.68
   1   3   6 1656.27   41.55
   1  -3   6 1540.33   36.91
  -1   3  -6 1695.57   44.83
  -1  -3  -6 1626.59   35.54
   1  -3   6 1589.05   50.18
   1  -3   8  810.16   37.23
   1   3   8  761.42   36.27
  -1  -3  -8  818.52   24.66
  -1   3  -8  790.06   29.23
  -1  -3  -8  742.14   36.29
  -1   3  -8  760.33   38.03
  -1   3  -8  796.02   37.43
  -1  -3  -8  787.23   37.28
   1   3   8  795.48   27.60
  -1   3  -8  760.30   29.92
   1  -3   8  765.66   36.88
  -1  -3 -10 1677.74   63.77
  -1   3 -10 1625.73   65.26
   1   3  10 1551.51   60.89
   1  -3  10 1639.79   62.29
  -1  -3 -10 1594.04   62.15
  -1   3 -10 1671.00   63.53
   1  -3  10 1611.59   62.82
  -1  -3 -12  511.94   37.53
  -1  -4  13    4.65    7.86
   1  -4 -13   24.45    9.30
   1   4 -13    0.83    8.53
  -1   4  13   10.85    8.11
  -1  -4  13    3.40    7.56
   1  -4 -13   11.31    8.49
   1   4 -13    5.00    7.83
   1   4 -11   24.95    5.51
   1  -4 -11   21.92    8.32
   1   4 -11   12.01    6.99
  -1   4  11   11.79    5.16
  -1  -4  11   20.55    8.45
  -1  -4  11   20.14    8.22
  -1   4  11   15.70    7.22
   1  -4 -11   21.51    8.33
   1   4 -11    9.65    6.49
   1   4  -9  630.95   30.47
   1  -4  -9  622.26   30.20
   1   4  -9  649.61   24.04
   1  -4  -9  580.43   30.87
   1   4  -9  621.56   32.29
  -1  -4   9  554.17   24.78
  -1   4   9  641.33   18.13
  -1  -4   9  614.77   16.78
  -1  -4   9  629.03   31.11
  -1   4   9  637.23   30.23
  -1   4   9  631.03   30.12
  -1  -4   9  601.36   29.27
  -1   4   7   35.88    6.60
  -1  -4   7   30.17    6.61
   1   4  -7   22.84    5.24
   1  -4  -7   20.78    5.40
  -1  -4   7   27.90    4.76
  -1   4   7   32.92    5.57
   1   4  -7   37.24    5.29
   1  -4  -7   34.38    7.33
   1   4  -7   28.38    6.87
  -1  -4   7   24.12    5.14
  -1  -4   7   32.96    7.50
  -1   4   7   31.28    6.80
  -1  -4   7   31.26    3.71
  -1   4   7   22.22    3.39
  -1  -4   7   19.67    3.14
   1  -4  -7   29.38    4.83
  -1   4   5  105.41    8.44
  -1  -4   5   91.22    7.76
  -1  -4   5  112.85    8.67
  -1   4   5  111.53    8.62
   1   4  -5   89.43    7.95
   1  -4  -5   90.66    7.75
  -1  -4   5   92.89    7.79
  -1   4   5   92.63    7.94
   1  -4  -5   93.94    3.84
  -1   4   5   87.44    7.14
   1   4  -5   91.89    7.30
  -1  -4   5   96.50    7.38
   1   4  -5   87.10    8.77
   1  -4  -5   99.40    6.03
   1  -4  -5  113.62   10.19
  -1  -4   5  104.07    9.01
   1  -4  -5   87.25    7.47
  -1  -4   5   95.04    8.53
  -1  -4   5   93.14    7.52
  -1   4   5  100.31    6.65
  -1  -4   5   98.09    6.35
  -1  -4   5   87.14    7.98
  -1  -4   5   98.53    7.67
  -1   4   5   95.47    7.84
  -1  -4   5   87.00    7.18
  -1   4   3 1068.95   25.00
  -1  -4   3 1053.07   24.89
   1  -4  -3 1074.90   24.95
   1   4  -3 1060.77   24.86
   1   4  -3 1068.04   25.19
  -1   4   3 1049.84   24.97
   1  -4  -3 1052.48   24.82
  -1  -4   3 1066.01   24.68
  -1   4   3 1086.01   26.29
   1  -4  -3 1074.33   22.62
   1  -4  -3 1007.42   26.29
  -1  -4   3 1028.28   26.33
   1   4  -3 1072.45   26.79
   1   4  -3 1049.98   27.31
  -1  -4   3 1059.82   26.98
  -1   4   3 1097.50   27.95
  -1  -4   3 1033.92   26.16
   1   4  -3 1043.36   27.45
  -1   4   3 1052.95   26.03
   1   4  -3 1017.88   25.86
  -1  -4   3 1071.50   25.80
   1   4  -3 1057.28   26.84
  -1  -4   3 1061.22   26.87
   1  -4  -3 1043.43   26.23
  -1  -4   3 1061.35   27.32
   1  -4  -3 1057.24   21.62
   1  -4  -3 1046.82   23.71
  -1   4   3 1009.22   23.55
  -1   4   1   12.74    1.60
  -1  -4   1   15.25    1.87
   1  -4  -1   16.60    2.02
   1   4  -1   12.25    1.74
  -1  -4   1   12.41    2.94
  -1   4   1   16.17    2.97
   1   4  -1    9.54    2.90
   1  -4  -1   11.92    2.46
  -1  -4   1   17.56    3.57
   1  -4  -1   13.76    2.83
  -1  -4   1   15.49    3.21
  -1   4   1    9.72    2.43
   1   4  -1   13.65    2.86
  -1  -4   1   13.67    2.47
   1   4  -1    9.92    2.35
   1  -4  -1   11.05    2.84
  -1  -4   1   13.63    2.88
   1   4  -1    8.93    2.49
  -1   4   1   12.36    2.86
   1  -4  -1    9.73    2.48
  -1   4   1   11.10    2.43
  -1   4   1   17.61    3.92
  -1  -4   1   12.85    2.94
   1   4  -1   20.14    3.30
   1  -4  -1   12.02    3.52
  -1  -4  -1   26.50    3.36
   1  -4   1   19.03    3.01
   1   4   1   20.62    3.18
  -1   4  -1   22.37    3.16
  -1   4  -1   21.57    3.71
  -1  -4  -1   20.41    4.31
   1  -4   1   17.44    3.43
   1   4   1   16.18    3.72
   1  -4   1   17.11    3.90
   1   4   1   18.22    3.43
  -1  -4  -1   18.42    3.63
  -1  -4  -1   22.67    3.53
   1   4   1   28.82    3.86
  -1   4  -1   18.64    3.10
  -1   4  -1   20.95    2.92
   1  -4   1   20.06    2.52
   1  -4   1   20.58    2.95
  -1  -4  -1   17.02    3.66
  -1   4  -1   21.08    3.04
  -1   4  -1   11.25    2.70
  -1  -4  -1   26.16    3.38
   1   4   1   20.90    3.23
   1  -4   1   21.41    3.80
   1  -4   1   19.86    2.72
  -1   4  -1   23.05    3.28
  -1  -4  -1   18.81    2.84
   1  -4   1   14.43    2.78
   1   4   1   19.36    3.17
   1   4   3  409.54   17.58
  -1   4  -3  479.16   18.73
  -1  -4  -3  455.25   18.42
   1  -4   3  402.76   17.41
  -1   4  -3  463.36   18.63
   1   4   3  467.44   18.68
   1  -4   3  443.75   18.27
  -1  -4  -3  417.71   17.85
  -1   4  -3  449.06   17.78
   1   4   3  498.16   21.39
   1  -4   3  438.88   17.98
  -1   4  -3  462.03   20.52
  -1  -4  -3  452.48   17.77
   1  -4   3  447.74   20.22
   1   4   3  439.11   16.00
  -1  -4  -3  456.54   18.42
   1  -4   3  432.49   12.84
   1   4   3  456.45   16.39
  -1   4  -3  402.07   18.27
  -1   4  -3  443.00   13.75
   1   4   3  455.81   14.24
  -1  -4  -3  442.90   14.08
  -1   4  -3  449.51   18.23
   1  -4   3  465.57   18.56
   1  -4   3  456.36   13.88
   1  -4   3  441.85   18.56
  -1  -4  -3  472.15   18.96
  -1  -4  -5   94.05   10.32
  -1   4  -5   89.66   10.08
  -1   4  -5   85.87    8.33
   1   4   5   93.70    7.16
  -1   4  -5   82.63   10.60
  -1  -4  -5   95.81   10.13
   1   4   5   87.87    8.17
   1  -4   5   91.23   10.14
   1  -4   5   87.97    5.79
   1   4   5   99.18    5.79
  -1  -4  -5   87.50    5.61
  -1   4  -5  102.67    9.36
   1  -4   5   90.31    5.22
  -1  -4  -5   99.03    5.55
   1   4   5   85.56    9.64
   1  -4   5   96.45   10.08
  -1  -4  -7  115.44    8.26
  -1   4  -7  110.20   10.30
   1   4   7  127.53    8.56
  -1   4  -7  118.64   13.63
  -1  -4  -7  131.92   13.83
  -1  -4  -7  108.35   13.13
  -1   4  -7  125.90   14.05
   1   4   7  130.74   10.60
   1  -4   7  140.90   14.50
   1  -4   7  109.33    7.20
  -1   4  -7  136.29   12.05
  -1  -4  -7  105.82    6.19
   1  -4   7  110.33   12.73
   1   4   7  108.92   12.73
  -1   4  -9   25.21    9.21
  -1  -4  -9   59.58   11.89
  -1   4  -9   38.29    7.30
   1   4   9   35.65    6.30
   1  -4   9   60.32   11.96
  -1   4  -9   69.33   12.86
  -1  -4  -9   44.01   10.69
   1   4   9   24.47    8.53
   1  -4   9   53.95   11.59
  -1  -4 -11   21.35   10.22
  -1   4 -11   22.43   10.26
   1   4  11   49.20   12.98
   1  -4  11    5.59    7.19
  -1   4 -11   18.93   10.18
  -1  -4 -11   18.88    9.71
   1   5 -12  760.66   43.58
   1  -5 -12  729.11   41.07
  -1  -5  12  688.07   39.15
  -1   5  12  737.27   32.99
  -1   5  12  738.47   39.65
  -1  -5  12  727.96   39.26
   1  -5 -12  778.84   41.35
   1   5 -12  826.54   42.43
   1   5 -10  817.47   37.99
   1  -5 -10  799.91   37.55
   1   5 -10  869.95   30.73
   1  -5 -10  765.89   38.15
   1   5 -10  824.70   40.68
  -1   5  10  832.45   33.05
  -1  -5  10  796.27   36.56
  -1   5  10  802.58   37.04
  -1  -5  10  826.72   38.49
   1  -5  -8 2095.69   58.45
   1   5  -8 2102.81   58.54
   1   5  -8 2102.76   51.82
   1  -5  -8 2093.77   60.90
   1   5  -8 2044.19   61.45
  -1  -5   8 1875.51   50.83
  -1   5   8 2054.40   54.31
  -1   5   8 2065.93   45.15
  -1  -5   8 2051.44   44.04
  -1   5   8 2103.03   58.01
  -1  -5   8 1951.19   56.45
  -1  -5   8 2029.87   41.95
  -1  -5   8 2062.68   59.29
  -1   5   8 1972.47   56.95
   1   5  -6 1290.21   37.99
   1  -5  -6 1319.00   38.14
   1  -5  -6 1306.98   25.64
  -1  -5   6 1330.72   36.08
  -1   5   6 1328.93   36.45
   1   5  -6 1287.81   35.51
   1  -5  -6 1301.58   41.13
   1  -5  -6 1309.25   31.59
   1   5  -6 1315.19   41.12
   1  -5  -6 1420.05   38.01
  -1  -5   6 1332.80   39.71
  -1   5   6 1224.25   37.40
  -1  -5   6 1229.15   34.51
  -1   5   6 1294.93   32.55
  -1  -5   6 1327.37   31.95
  -1  -5   6 1293.29   34.77
  -1   5   6 1315.52   37.41
  -1  -5   6 1286.04   37.52
  -1   5   6 1312.37   37.89
  -1  -5   4 1232.25   30.14
  -1   5   4 1216.28   30.00
   1  -5  -4 1153.53   29.62
  -1   5   4 1165.35   29.83
  -1  -5   4 1149.76   29.36
   1   5  -4 1143.77   29.75
   1   5  -4 1142.18   30.97
   1  -5  -4 1094.13   31.19
  -1  -5   4 1162.55   30.86
   1  -5  -4 1169.52   25.10
   1   5  -4 1110.02   32.49
  -1   5   4 1156.23   30.70
  -1  -5   4 1173.59   32.40
  -1   5   4 1155.22   32.12
  -1  -5   4 1124.58   29.89
  -1  -5   4 1179.27   31.91
   1   5  -4 1163.86   29.66
  -1  -5   4 1138.78   28.98
  -1   5   4 1153.36   29.52
   1  -5  -4 1165.48   23.20
   1  -5  -4 1190.20   30.18
  -1  -5   4 1240.86   32.42
   1  -5  -4 1174.72   28.72
   1  -5  -2 2427.11   44.73
  -1   5   2 2412.18   45.15
   1   5  -2 2480.20   44.73
  -1  -5   2 2356.85   45.00
  -1   5   2 2456.43   44.67
  -1  -5   2 2419.08   44.72
  -1  -5   2 2449.78   51.03
  -1  -5   2 2443.08   49.34
   1  -5  -2 2412.40   48.64
  -1   5   2 2445.62   48.71
   1  -5  -2 2416.57   51.73
  -1  -5   2 2487.54   52.18
  -1   5   2 2458.85   51.36
   1   5  -2 2425.17   51.32
  -1  -5   2 2373.16   50.59
   1   5  -2 2460.33   51.09
  -1  -5   2 2505.98   50.92
   1   5  -2 2405.70   49.08
  -1  -5   2 2420.49   49.82
  -1   5   2 2486.86   51.11
   1  -5  -2 2457.40   51.13
  -1   5   2 2395.33   55.37
  -1  -5   2 2410.58   52.83
   1  -5  -2 2464.62   48.17
  -1   5   2 2493.55   48.25
   1  -5  -2 2433.12   55.73
   1  -5  -2 2539.84   43.15
  -1   5   0 2702.81   50.55
  -1  -5   0 2830.69   50.94
  -1  -5   0 2791.84   59.28
   1   5   0 2731.54   58.90
  -1   5   0 2816.92   57.31
   1  -5   0 2876.92   57.59
  -1  -5   0 2750.62   57.60
  -1  -5   0 2761.79   56.54
   1   5   0 2762.62   56.57
   1  -5   0 2909.45   54.77
   1  -5   0 2732.37   50.99
  -1   5   0 2869.55   54.70
   1   5   0 2818.72   56.40
   1  -5   0 2810.36   51.44
  -1   5   0 2811.91   55.93
  -1  -5   0 2855.33   56.34
   1  -5   0 2756.14   56.07
   1   5   0 2717.13   54.94
   1  -5   0 2639.66   61.07
   1  -5   0 2910.71   57.81
  -1   5   0 2760.80   57.23
   1   5   0 2784.96   58.93
   1   5   0 2765.16   51.13
  -1   5   0 2780.55   50.52
  -1  -5   0 2769.42   50.70
   1  -5   0 2711.41   50.73
   1   5   2 1523.96   36.46
   1  -5   2 1610.22   36.91
  -1  -5  -2 1526.82   36.52
  -1   5  -2 1543.96   36.49
  -1   5  -2 1524.39   36.54
  -1  -5  -2 1504.78   36.50
   1   5   2 1557.69   36.91
   1  -5   2 1546.02   36.68
  -1   5  -2 1517.68   41.36
   1   5   2 1577.76   41.65
  -1   5  -2 1497.77   38.43
   1  -5   2 1573.57   39.31
   1   5   2 1563.37   37.34
   1  -5   2 1507.64   40.76
  -1  -5  -2 1502.02   37.36
  -1  -5  -2 1537.52   38.15
  -1   5  -2 1468.50   33.75
   1  -5   2 1565.43   33.01
   1   5   2 1533.29   37.09
  -1   5  -2 1504.19   37.33
  -1  -5  -2 1443.07   37.96
   1   5   2 1543.72   35.45
   1  -5   2 1554.85   34.93
  -1  -5  -2 1500.47   34.97
  -1   5  -2 1541.20   34.93
  -1   5  -2 1553.16   39.50
   1  -5   2 1560.95   39.63
   1  -5   2 1502.01   36.94
   1  -5   4 1889.12   49.43
   1   5   4 1939.17   50.18
  -1   5  -4 1900.74   49.76
  -1  -5  -4 1906.33   50.21
  -1   5  -4 1882.68   53.62
  -1   5  -4 1976.68   49.05
  -1  -5  -4 1922.20   50.38
  -1  -5  -4 1904.88   48.65
   1   5   4 1935.37   45.15
   1  -5   4 1959.36   40.65
   1   5   4 1996.62   47.18
  -1   5  -4 1954.14   41.91
   1   5   4 1999.82   42.49
   1  -5   4 1980.24   41.66
  -1  -5  -4 1967.60   42.44
  -1   5  -4 1980.49   50.07
   1  -5   4 1884.64   50.49
   1   5   6 1294.14   43.91
   1  -5   6 1363.81   44.60
  -1   5  -6 1343.59   44.67
  -1  -5  -6 1335.06   44.75
  -1   5  -6 1427.08   41.24
  -1   5  -6 1298.64   47.02
  -1  -5  -6 1282.01   44.14
   1  -5   6 1291.75   31.28
   1   5   6 1305.69   38.30
   1   5   6 1340.00   30.92
   1  -5   6 1335.77   29.84
  -1   5  -6 1350.17   41.62
  -1  -5  -6 1371.61   28.09
   1  -5   6 1393.58   45.68
  -1  -5  -8 1810.76   60.98
  -1   5  -8 1887.16   61.48
  -1  -5  -8 1871.87   61.36
  -1   5  -8 1896.13   65.03
  -1   5  -8 1903.62   53.23
   1   5   8 1815.51   50.05
   1   5   8 1772.98   59.89
   1  -5   8 1880.13   60.69
   1  -5   8 1820.93   61.49
  -1   5 -10  807.07   42.47
  -1  -5 -10  883.54   44.62
  -1  -5 -10  861.00   43.50
  -1   5 -10  836.56   45.77
   1  -5  10  786.56   41.43
   1   5  10  865.39   43.86
   1  -5  10  847.43   44.02
  -1  -6  13   26.00   10.26
   1   6 -13   -1.29    7.69
   1  -6 -13   32.27   11.99
  -1   6  13   19.20    8.82
  -1  -6  13   12.21    7.44
   1   6 -13   13.14    7.78
   1  -6 -13    7.45    7.27
   1   6 -11    7.78    4.77
   1  -6 -11   -3.37    7.42
   1   6 -11   22.11    9.41
  -1   6  11    1.84    4.62
  -1  -6  11    2.37    6.80
  -1   6  11    2.15    5.99
  -1  -6  11   10.27    5.56
   1  -6 -11    3.70    5.77
   1   6 -11    7.46    7.19
   1  -6  -9  190.16   16.55
   1   6  -9  200.75   17.13
   1   6  -9  212.16   14.50
   1  -6  -9  207.48   18.54
   1   6  -9  225.85   19.66
  -1   6   9  194.84   15.71
  -1   6   9  194.15   10.80
  -1  -6   9  201.59   17.53
  -1   6   9  199.83   16.84
  -1  -6   9  202.78   17.07
  -1   6   7    1.77    3.88
  -1  -6   7    4.46    3.99
   1  -6  -7    8.96    4.66
   1   6  -7   -8.22    4.73
   1  -6  -7    2.89    1.18
   1   6  -7    1.08    2.93
   1   6  -7   -0.82    4.93
   1  -6  -7    8.86    5.35
   1  -6  -7    5.79    3.03
  -1  -6   7    1.81    2.29
  -1  -6   7   11.30    5.21
  -1   6   7    2.83    3.72
  -1  -6   7    4.42    2.68
  -1   6   7   -1.80    2.65
  -1  -6   7    8.08    3.43
  -1  -6   5   -0.08    2.50
  -1   6   5    2.75    3.01
  -1  -6   5    3.74    2.94
   1   6  -5    1.79    3.17
   1  -6  -5    4.48    3.13
  -1  -6   5   -0.17    2.02
  -1   6   5   -0.92    2.73
  -1   6   5   -2.26    2.08
   1  -6  -5    0.37    3.16
   1  -6  -5    1.65    1.58
  -1   6   5    2.42    2.76
  -1  -6   5   -1.61    2.40
   1   6  -5    0.25    2.83
   1  -6  -5    4.28    2.75
   1   6  -5    3.07    4.25
   1  -6  -5    5.36    4.55
  -1   6   5    3.80    3.89
  -1  -6   5    4.27    2.47
  -1  -6   5    2.98    3.89
   1  -6  -5    0.34    2.00
  -1  -6   5    2.99    3.26
   1  -6  -5   -3.20    2.33
   1   6  -5   -0.66    2.27
  -1  -6   5    2.41    2.37
  -1   6   5    0.40    2.68
  -1  -6   5    2.13    3.25
   1   6  -3  527.39   15.38
  -1  -6   3  525.86   15.52
  -1   6   3  522.16   15.45
   1  -6  -3  516.89   15.26
  -1   6   3  559.34   15.64
  -1  -6   3  529.27   15.41
   1  -6  -3  541.03   16.27
   1  -6  -3  524.56   19.69
  -1  -6   3  544.54   19.20
  -1  -6   3  545.70   18.94
  -1  -6   3  523.46   18.32
  -1  -6   3  525.78   18.37
   1   6  -3  527.83   17.95
   1   6  -3  521.14   18.66
  -1   6   3  520.07   18.43
   1  -6  -3  512.55   14.45
  -1   6   3  526.41   22.52
  -1  -6   3  505.12   21.03
   1  -6  -3  559.07   19.20
   1  -6  -3  513.74   15.36
  -1  -6   3  557.71   19.91
  -1  -6   3  506.56   18.28
  -1   6   3  534.43   19.78
   1   6  -3  563.65   19.60
  -1  -6   1  649.91   22.39
  -1  -6   1  691.37   21.11
   1  -6  -1  694.57   21.05
   1   6  -1  684.83   22.95
  -1   6   1  679.24   20.82
  -1   6   1  650.42   20.50
  -1  -6   1  662.18   21.24
   1   6  -1  707.39   21.87
   1  -6  -1  715.01   21.56
  -1  -6   1  666.84   21.14
   1   6  -1  650.18   21.22
   1   6  -1  696.93   19.43
  -1   6   1  695.58   21.51
  -1  -6   1  688.36   19.88
   1  -6  -1  721.97   22.01
   1  -6  -1  695.43   21.00
   1  -6  -1  676.61   24.68
  -1   6   1  637.91   20.49
  -1   6   1  686.06   24.80
   1   6  -1  666.95   22.67
  -1  -6   1  673.06   22.76
  -1  -6   1  684.22   14.17
   1   6   1    5.35    2.27
  -1  -6  -1   -0.30    1.61
   1  -6   1   -0.26    1.85
  -1   6  -1    1.67    1.74
  -1   6  -1    6.06    2.31
  -1  -6  -1    0.12    1.77
   1   6   1    0.44    1.64
   1  -6   1    2.62    1.97
  -1  -6  -1    1.79    3.60
   1   6   1    2.29    2.60
   1  -6   1    4.06    2.83
  -1   6  -1    0.75    2.82
   1  -6   1    4.90    3.11
  -1  -6  -1    0.19    2.96
  -1  -6  -1    2.74    2.25
  -1   6  -1   -0.40    2.12
   1   6   1    0.68    2.73
   1  -6   1   -0.24    1.54
   1  -6   1    3.87    2.23
   1  -6   1    5.02    2.63
  -1   6  -1    3.59    2.93
  -1   6  -1    1.71    3.19
   1  -6   1    1.48    1.94
  -1  -6  -1    2.40    2.65
   1  -6   1   -1.28    2.85
   1   6   1    3.66    2.73
   1  -6   1    4.04    4.65
   1  -6   3    3.04    2.65
   1   6   3    2.91    2.48
  -1  -6  -3    4.98    3.34
  -1   6  -3    1.37    2.75
  -1   6  -3   10.35    4.10
  -1  -6  -3    2.18    3.33
  -1  -6  -3    4.44    2.93
  -1   6  -3    2.68    4.58
   1   6   3    5.87    3.01
   1  -6   3    7.06    2.14
  -1  -6  -3    7.88    4.05
   1  -6   3    2.31    2.99
  -1   6  -3    7.30    2.58
   1   6   3    8.71    3.19
   1  -6   3    9.33    2.75
  -1  -6  -3   10.31    2.78
  -1   6  -3    9.51    4.88
  -1   6  -3    8.05    2.75
   1   6   3   10.28    3.50
   1  -6   3    6.82    2.88
  -1  -6  -3   10.36    3.15
   1  -6   5  645.08   26.86
   1   6   5  722.87   28.35
  -1   6  -5  668.52   27.59
  -1  -6  -5  677.42   27.75
  -1   6  -5  611.52   25.35
  -1   6  -5  632.71   30.02
  -1  -6  -5  604.45   26.53
   1   6   5  636.49   24.42
   1  -6   5  645.40   19.32
  -1   6  -5  649.35   20.34
   1   6   5  631.99   20.44
  -1   6  -5  636.12   26.64
  -1  -6  -5  624.05   20.62
   1  -6   5  659.70   20.07
   1  -6   5  675.10   28.11
   1  -6   7  344.37   22.14
   1   6   7  358.27   22.58
  -1  -6  -7  372.40   23.40
  -1   6  -7  308.99   21.50
  -1   6  -7  313.89   23.69
  -1   6  -7  344.38   19.74
  -1  -6  -7  335.68   22.10
   1   6   7  340.65   18.67
   1   6   7  327.49   13.12
  -1   6  -7  346.81   20.90
   1  -6   7  377.50   23.79
  -1  -6  -9    7.63    7.29
  -1   6  -9   -1.30    6.49
  -1   6  -9    5.05    5.21
   1   6   9   -6.69    4.81
   1  -6   9    2.50    6.59
   1  -6   9    4.07    6.55
   1   6   9    4.43    7.32
  -1  -6  -9  -10.34    8.14
  -1   6  -9   -0.48    5.88
   1  -6  11  241.99   24.85
  -1   6 -11  156.32   20.36
  -1  -6 -11  175.20   21.35
   1  -6  11  202.70   22.38
   1   6  11  200.02   22.28
  -1  -6 -11  196.30   22.50
  -1   6 -11  204.74   24.60
   1  -7 -12  801.25   42.80
   1   7 -12  849.04   43.81
   1   7 -12  915.54   48.91
   1  -7 -12  879.19   45.69
  -1   7  12  820.36   36.39
  -1  -7  12  808.14   41.72
  -1   7  12  853.49   43.25
  -1  -7  12  883.49   45.16
   1  -7 -10 1160.63   46.93
   1   7 -10 1280.96   49.23
   1   7 -10 1237.47   41.77
   1   7 -10 1319.31   53.72
   1  -7 -10 1198.71   49.85
  -1   7  10 1280.25   44.28
  -1   7  10 1295.80   34.30
  -1   7  10 1317.10   48.84
  -1  -7  10 1224.09   47.12
  -1  -7  10 1229.48   49.00
   1  -7  -8 1329.14   44.20
   1   7  -8 1354.65   44.60
   1   7  -8 1343.96   48.91
   1  -7  -8 1249.04   25.86
   1   7  -8 1336.55   41.35
   1  -7  -8 1318.32   36.53
   1  -7  -8 1300.60   47.17
  -1   7   8 1351.25   42.94
  -1   7   8 1292.62   35.57
  -1  -7   8 1350.75   34.92
  -1  -7   8 1310.33   45.25
  -1  -7   8 1436.94   34.79
  -1  -7   8 1292.17   42.95
  -1   7   8 1349.34   44.16
  -1  -7   6 2534.92   60.24
  -1   7   6 2523.53   60.51
   1  -7  -6 2594.65   61.35
   1   7  -6 2588.89   61.44
   1  -7  -6 2611.78   50.53
   1   7  -6 2558.62   67.00
   1   7  -6 2569.36   61.68
   1  -7  -6 2541.17   67.03
   1  -7  -6 2658.95   57.93
  -1  -7   6 2496.94   58.06
  -1  -7   6 2569.23   63.95
  -1   7   6 2492.82   63.41
  -1   7   6 2510.98   57.64
  -1  -7   6 2653.74   57.43
   1  -7  -6 2636.60   59.54
   1  -7  -6 2689.45   60.33
  -1  -7   6 2687.44   58.40
  -1   7   4 4478.48   87.25
  -1   7   4 4820.36   87.87
  -1  -7   4 4487.20   86.83
  -1  -7   4 4756.77   87.56
  -1   7   4 4626.39   87.74
  -1  -7   4 4599.96   87.26
   1  -7  -4 4465.31   87.33
   1   7  -4 4416.80   87.53
   1  -7  -4 4655.62   85.91
   1   7  -4 4692.01   93.83
   1  -7  -4 4524.71   94.39
  -1   7   4 4701.57   93.69
  -1  -7   4 4641.37   93.91
  -1  -7   4 4637.54   90.85
  -1   7   4 4737.09   94.33
   1   7  -4 4552.99   93.50
   1   7  -4 4591.67   91.84
  -1  -7   4 4698.42   90.96
   1   7  -4 4513.17   91.73
  -1  -7   4 4709.81   92.40
  -1   7   4 4566.37   91.09
   1  -7  -4 4545.45   83.45
   1  -7  -4 4756.24   92.25
   1  -7  -4 4696.69   86.29
  -1   7   2 6236.59  104.12
  -1  -7   2 6219.05  104.16
   1  -7  -2 6288.75  113.40
  -1  -7   2 6212.44  115.81
   1  -7  -2 5924.04  117.19
  -1  -7   2 6175.75  118.06
  -1   7   2 6159.90  113.21
  -1  -7   2 6154.23  113.56
  -1  -7   2 6234.15  115.25
  -1   7   2 6204.19  115.95
   1   7  -2 6186.09  115.94
   1  -7  -2 6491.21  117.59
  -1  -7   2 6186.51  115.55
  -1   7   2 6120.32  115.60
   1   7  -2 6157.35  111.40
   1   7  -2 6048.69  115.92
   1  -7  -2 6338.50  116.52
  -1  -7   2 6056.71  112.82
   1  -7  -2 5949.97  112.16
   1  -7  -2 5889.65  121.89
  -1   7   2 6043.50  122.13
  -1  -7   2 5715.90  118.17
  -1  -7   2 6227.02  116.39
   1  -7  -2 6086.23  104.05
  -1  -7   2 5939.13  104.94
   1   7  -2 6202.55  104.11
  -1   7   2 6027.58  105.14
  -1  -7   0 3248.75   58.78
  -1   7   0 3299.96   58.43
   1   7   0 3455.23   72.38
  -1  -7   0 3187.26   67.18
  -1  -7   0 3178.84   71.55
   1  -7   0 3409.74   69.68
  -1   7   0 3236.16   69.04
  -1  -7   0 3272.75   70.48
   1   7   0 3272.55   59.29
  -1   7   0 3408.12   67.42
   1  -7   0 3438.00   67.48
   1  -7   0 3277.67   58.98
   1  -7   0 3301.64   60.77
  -1  -7   0 3184.47   69.08
   1   7   0 3289.61   69.16
   1  -7   0 3328.85   68.64
  -1   7   0 3353.56   68.61
   1   7   0 3266.66   68.69
   1  -7   0 3311.43   61.16
  -1  -7   0 3386.62   68.89
   1   7   0 3173.39   65.60
  -1   7   0 3388.82   70.04
   1  -7   0 3380.76   69.74
   1   7   0 3149.52   71.62
   1  -7   0 3233.29   74.86
  -1  -7   0 3317.78   58.77
  -1   7   0 3304.06   58.32
   1   7   2 5583.75  106.88
   1  -7   2 5774.47  106.85
  -1  -7  -2 5973.18  107.11
  -1   7  -2 5651.07  106.74
  -1  -7  -2 5730.90  106.88
   1   7   2 5803.86  107.41
   1  -7   2 5865.82  107.30
  -1  -7  -2 5702.45  117.72
  -1   7  -2 5883.25  113.54
  -1  -7  -2 5729.35  112.60
  -1   7  -2 5711.10  107.50
   1  -7   2 5869.63  106.78
   1   7   2 5738.17  111.67
  -1  -7  -2 5786.25  109.51
   1   7   2 5695.76  109.69
   1  -7   2 5872.97  109.39
  -1   7  -2 5740.10  108.87
   1  -7   2 5718.76  109.23
  -1   7  -2 5763.98  114.43
   1  -7   2 5695.37  108.63
   1  -7   4 2100.22   53.30
   1   7   4 2153.44   53.79
  -1  -7  -4 2215.93   54.43
  -1   7  -4 2195.00   54.21
  -1   7  -4 2254.03   61.32
  -1   7  -4 2130.06   55.19
  -1  -7  -4 2120.36   54.16
  -1  -7  -4 2128.62   55.39
   1  -7   4 2085.73   46.51
   1   7   4 2053.12   52.74
   1  -7   4 2154.96   48.92
   1   7   4 2151.65   49.86
  -1  -7  -4 2188.87   49.91
  -1   7  -4 2204.26   49.55
  -1   7  -4 2206.17   57.20
   1  -7   4 2171.61   55.22
   1   7   6 2159.50   60.53
   1  -7   6 2056.92   58.94
  -1  -7  -6 2140.79   60.47
  -1   7  -6 2190.76   60.83
  -1   7  -6 2113.02   57.65
  -1   7  -6 2211.29   66.58
  -1  -7  -6 2146.77   60.87
   1  -7   6 2076.96   46.50
   1   7   6 2168.61   56.14
   1   7   6 2106.38   48.62
  -1  -7  -6 2112.89   39.00
   1  -7   6 2151.19   48.03
  -1   7  -6 2127.00   59.69
  -1  -7  -6 2032.80   49.24
   1  -7   6 2134.90   61.10
  -1   7  -8 1403.92   45.78
  -1   7  -8 1295.15   53.84
  -1  -7  -8 1274.70   49.49
  -1   7  -8 1301.12   49.66
  -1  -7  -8 1238.72   49.02
   1   7   8 1365.66   43.55
   1   7   8 1295.06   49.32
   1  -7   8 1230.68   48.34
   1  -7   8 1303.69   50.35
  -1   7 -10  759.30   34.21
  -1   7 -10  689.01   42.44
  -1  -7 -10  724.31   40.25
  -1   7 -10  734.70   40.54
  -1  -7 -10  732.36   40.43
   1  -7  10  709.65   40.39
   1  -7  10  737.33   40.21
   1   7  10  775.57   41.26
  -1  -8  13    3.88    8.27
   1  -8 -13   -0.08    7.04
   1   8 -13   -2.51    6.92
   1  -8 -13   12.23    8.79
  -1  -8  13   -7.04    6.66
  -1   8  13   -1.72    6.66
  -1  -8  11   45.46   11.51
  -1   8  11   39.26    8.95
   1  -8 -11   29.37    8.89
   1   8 -11   57.67   11.72
   1  -8 -11   38.77   11.36
   1   8 -11   24.51    9.97
  -1  -8  11   15.60    7.70
  -1   8  11   30.69    9.85
   1   8  -9    3.13    3.58
   1   8  -9    8.45    6.18
   1  -8  -9    8.28    6.39
   1  -8  -9    0.55    4.98
   1   8  -9    1.53    5.33
  -1   8   9   -1.85    4.47
  -1  -8   9    5.39    5.98
  -1   8   9   -1.27    3.08
  -1  -8   9    8.08    6.27
  -1   8   9   10.73    6.38
  -1  -8   7   49.14    7.20
  -1   8   7   60.87    8.17
   1   8  -7   63.27    8.50
   1  -8  -7   54.69    4.54
   1  -8  -7   60.75    9.74
   1   8  -7   55.29    9.70
   1  -8  -7   65.45    7.33
   1  -8  -7   58.24    8.33
   1   8  -7   67.80    8.71
  -1   8   7   50.70    8.16
  -1  -8   7   59.86    9.08
  -1   8   7   67.98    7.74
  -1  -8   7   63.50    7.06
  -1   8   5   10.23    3.47
  -1  -8   5   10.17    2.56
   1  -8  -5   20.86    4.15
  -1   8   5   19.41    4.47
  -1  -8   5   21.01    3.80
   1   8  -5   12.84    3.83
   1   8  -5   20.92    5.27
   1  -8  -5   11.16    2.45
   1  -8  -5   12.46    4.87
   1   8  -5   13.05    5.98
   1  -8  -5   13.30    4.11
   1  -8  -5    6.56    3.06
  -1   8   5   18.41    5.82
   1   8  -5    7.08    3.82
  -1  -8   5   19.14    4.34
  -1  -8   5   16.19    4.51
   1   8  -5   24.10    5.16
   1  -8  -5   14.83    2.34
  -1   8   5   17.33    4.12
  -1  -8   5   16.42    3.88
  -1   8   5    7.21    3.06
  -1   8   3    1.44    1.70
  -1  -8   3    0.23    1.70
  -1   8   3    1.32    1.69
  -1  -8   3    4.38    1.81
  -1  -8   3    0.77    1.48
  -1   8   3    1.55    1.67
  -1  -8   3    4.01    3.85
   1  -8  -3    2.86    3.07
   1  -8  -3   -0.03    1.97
  -1  -8   3    3.12    2.82
   1   8  -3    1.09    3.33
  -1  -8   3    4.94    3.02
   1  -8  -3    4.63    1.87
   1   8  -3    1.72    3.48
  -1  -8   3   -1.03    2.33
  -1   8   3    1.84    3.80
  -1   8   3    0.10    3.47
   1   8  -3    1.78    3.35
   1  -8  -3    1.42    1.94
  -1  -8   3    5.59    3.51
  -1  -8   3    1.28    4.04
  -1  -8   1  270.86   14.05
   1   8  -1  247.85   13.89
   1  -8  -1  262.88   13.58
  -1   8   1  255.48   13.58
   1  -8  -1  238.14   13.34
  -1  -8   1  267.76   12.40
   1   8  -1  265.57   14.04
  -1  -8   1  238.65   13.27
  -1   8   1  259.91   13.96
   1   8  -1  243.23   11.22
   1  -8  -1  244.33    8.07
  -1   8   1  275.66   13.95
   1  -8  -1  250.73   16.03
  -1  -8   1  238.86   12.88
   1   8  -1  243.66   14.97
   1  -8  -1  254.01   13.18
  -1   8   1  261.68   16.41
  -1  -8   1  255.37   15.47
  -1  -8   1  255.34   13.51
   1  -8  -1  251.32   13.17
  -1   8   1  232.95   12.94
  -1  -8   1  235.64   14.35
  -1  -8  -1 1012.25   24.65
  -1   8  -1 1082.62   24.84
  -1   8  -1 1053.35   32.53
  -1  -8  -1 1029.29   34.54
  -1  -8  -1 1083.11   33.17
   1   8   1 1060.89   32.15
   1  -8   1 1039.24   29.36
  -1   8  -1  978.59   29.32
   1  -8   1 1006.86   26.66
  -1   8  -1 1028.67   30.92
   1   8   1 1001.91   30.97
   1  -8   1 1011.66   27.08
   1   8   1 1002.02   28.59
   1  -8   1 1053.55   30.93
  -1   8  -1 1107.23   33.65
   1   8   1 1056.31   35.51
   1  -8   1 1006.88   37.00
   1  -8   1 1033.61   24.61
   1   8   1 1055.40   25.15
  -1  -8  -1 1043.33   24.85
   1   8   3  106.48    8.69
   1  -8   3   95.78    8.06
   1   8   3   95.88    8.34
   1  -8   3   87.40    7.66
  -1   8  -3  107.78    8.68
  -1  -8  -3   98.25    8.43
   1   8   3   94.13    8.04
   1  -8   3   95.35    8.13
  -1   8  -3   85.19    9.31
  -1  -8  -3   93.52    9.38
  -1  -8  -3  107.98    9.84
   1  -8   3  102.06    7.67
  -1   8  -3   99.27    8.47
   1   8   3  112.35   10.07
  -1   8  -3   99.50    8.58
   1  -8   3   94.67    8.77
   1   8   3  100.28    8.83
   1  -8   3   97.44    8.18
  -1   8  -3   75.94    9.22
   1  -8   3  100.58    9.03
  -1  -8  -3   94.01    8.94
   1   8   5   33.13    6.87
   1  -8   5   26.35    6.27
  -1   8  -5   33.56    6.65
  -1  -8  -5   37.67    7.13
  -1  -8  -5   47.81    8.04
  -1   8  -5   37.62    9.36
  -1  -8  -5   37.15    7.47
  -1   8  -5   23.67    5.56
   1   8   5   38.68    7.11
   1  -8   5   40.31    7.72
   1  -8   5   38.13    4.80
  -1   8  -5   30.77    6.18
   1   8   5   32.34    5.23
  -1   8  -5   39.00    5.54
   1  -8   5   40.30    5.36
   1  -8   5   34.26    4.00
  -1   8  -7    8.65    5.53
  -1  -8  -7   23.27    8.42
  -1   8  -7    2.36    6.94
  -1  -8  -7   -2.44    5.71
  -1   8  -7    5.11    4.46
   1   8   7    2.44    4.30
   1  -8   7   -4.17    5.48
   1   8   7   10.86    3.80
   1  -8   7    0.36    5.58
   1   8   7    7.98    6.01
  -1   8  -9    9.43    9.03
  -1  -8  -9   -0.65    6.50
  -1   8  -9    3.70    4.90
   1   8   9   11.61    5.45
   1  -8   9   17.93    8.75
   1  -8   9   -1.26    6.04
   1   8   9   -6.41    7.23
  -1  -8  -9   -3.95    6.23
  -1   8  -9   -4.74    6.87
   1  -8  11   50.11   13.24
  -1  -8 -11   51.44   13.38
  -1   8 -11   43.66   12.30
   1  -8  11   28.00   10.87
   1   8  11   36.50   10.35
  -1  -8 -11   44.77   12.26
   1   9 -12  906.69   45.90
   1  -9 -12  885.68   45.15
   1   9 -12  992.85   52.60
   1  -9 -12  897.04   46.95
  -1   9  12  896.69   40.16
  -1   9  12  955.64   45.88
  -1  -9  12  957.28   45.33
  -1  -9  12  851.68   45.12
   1  -9 -10 1709.02   58.68
   1   9 -10 1734.08   59.37
   1   9 -10 1710.09   64.69
   1  -9 -10 1811.05   62.92
  -1   9  10 1711.43   55.76
  -1   9  10 1699.36   45.91
  -1  -9  10 1730.72   57.59
  -1   9  10 1653.85   57.23
  -1  -9  10 1715.93   60.39
   1  -9  -8 2155.77   60.73
   1   9  -8 2220.35   61.46
   1   9  -8 2233.21   60.90
   1   9  -8 2302.84   69.70
   1  -9  -8 2090.55   65.48
   1  -9  -8 2200.47   55.74
  -1   9   8 2136.67   61.03
  -1   9   8 2158.79   54.85
  -1  -9   8 2193.47   54.67
  -1  -9   8 2148.16   63.16
  -1   9   8 2145.93   60.27
  -1  -9   8 2143.69   59.71
  -1   9   6 3176.27   69.76
  -1  -9   6 3013.52   68.75
   1   9  -6 3104.23   70.24
   1  -9  -6 3086.56   69.90
   1   9  -6 3162.48   74.59
   1  -9  -6 2948.41   76.77
   1   9  -6 2992.08   78.21
   1  -9  -6 3064.88   62.46
   1  -9  -6 3017.36   78.03
   1  -9  -6 3077.50   70.06
  -1   9   6 3073.53   74.40
  -1  -9   6 2945.69   73.10
   1   9  -6 3057.55   70.69
  -1   9   6 3009.74   70.01
   1  -9  -6 3140.24   57.32
  -1  -9   6 3142.81   68.52
   1  -9  -6 3107.24   68.85
  -1   9   4 4286.28   80.42
  -1  -9   4 4203.55   80.35
  -1   9   4 4280.48   80.77
  -1  -9   4 4202.45   80.00
  -1   9   4 4395.06   80.86
  -1  -9   4 4048.40   79.98
   1  -9  -4 4228.51   83.42
   1  -9  -4 4271.89   92.96
   1   9  -4 4139.19   89.07
  -1  -9   4 4253.80   87.92
  -1   9   4 4173.20   88.59
   1   9  -4 4135.23   86.80
   1   9  -4 4140.13   89.72
  -1   9   4 4137.48   90.51
   1  -9  -4 4167.37   81.15
  -1  -9   4 4058.66   96.52
   1  -9  -4 4248.96   79.98
  -1   9   2 2442.61   57.68
   1   9  -2 2412.66   57.63
   1   9  -2 2333.42   51.45
  -1  -9   2 2449.26   54.08
  -1   9   2 2406.67   42.26
   1   9  -2 2384.11   57.50
  -1   9   2 2431.73   57.38
   1  -9  -2 2398.20   54.51
   1  -9  -2 2329.01   63.38
  -1  -9   2 2309.67   60.78
  -1  -9   2 2433.98   55.39
   1  -9  -2 2392.64   55.20
   1  -9  -2 2385.52   59.77
  -1  -9   2 2385.96   59.70
  -1  -9   0 3744.83   65.51
  -1   9   0 3947.57   64.87
  -1  -9   0 3610.59   84.10
  -1   9   0 3748.33   81.35
  -1  -9   0 3718.50   83.00
  -1   9   0 3655.58   79.17
   1   9   0 3846.56   82.04
   1  -9   0 3823.93   70.19
   1  -9   0 3784.50   71.10
   1   9   0 3470.47   74.61
  -1   9   0 3752.86   80.83
   1   9   0 3711.80   81.01
  -1  -9   0 3723.00   78.21
  -1   9   0 3751.81   81.58
   1  -9   0 3810.85   88.70
   1   9   0 3703.61   85.14
   1  -9   0 3807.55   65.13
   1   9   0 3817.22   65.28
   1  -9   2 2514.95   53.09
   1   9   2 2522.54   53.67
   1   9   2 2505.36   53.53
   1  -9   2 2530.29   53.27
   1   9   2 2598.00   53.98
  -1   9  -2 2617.04   53.72
  -1  -9  -2 2460.93   53.33
   1  -9   2 2565.69   53.48
  -1  -9  -2 2500.17   66.22
  -1  -9  -2 2513.81   57.30
  -1   9  -2 2494.74   62.33
  -1  -9  -2 2557.74   62.64
  -1   9  -2 2555.16   58.32
   1  -9   2 2515.24   56.88
   1   9   2 2565.96   61.72
   1  -9   2 2427.15   56.45
  -1   9  -2 2602.05   59.78
   1   9   2 2603.96   60.58
  -1   9  -2 2610.91   63.99
   1  -9   2 2405.78   69.55
   1  -9   2 2538.92   56.08
   1  -9   4 1811.75   47.36
   1   9   4 1831.77   48.02
  -1   9  -4 1822.29   47.72
  -1  -9  -4 1774.38   47.66
  -1   9  -4 1805.71   52.17
  -1  -9  -4 1796.67   51.04
  -1  -9  -4 1807.85   50.89
   1   9   4 1792.87   50.23
  -1   9  -4 1769.05   47.32
   1  -9   4 1884.23   44.40
   1   9   4 1749.37   47.07
  -1   9  -4 1736.16   46.38
  -1   9  -4 1853.55   53.78
   1  -9   4 1786.81   49.47
  -1  -9  -6 1702.06   51.72
  -1   9  -6 1683.14   51.32
  -1   9  -6 1703.69   52.21
  -1  -9  -6 1660.01   52.61
  -1  -9  -6 1612.68   50.38
   1   9   6 1622.97   49.69
   1   9   6 1612.70   43.99
  -1   9  -6 1616.74   43.96
   1  -9   6 1595.21   50.13
   1   9   6 1593.13   50.37
   1  -9   6 1646.27   52.28
  -1   9  -8 1116.86   43.15
  -1   9  -8 1121.90   51.26
  -1  -9  -8 1220.20   47.83
  -1   9  -8 1120.52   45.67
  -1  -9  -8 1148.99   46.30
   1   9   8 1080.86   40.81
   1  -9   8 1073.07   44.53
   1   9   8 1134.34   45.75
   1  -9   8 1184.73   48.22
  -1   9 -10  351.34   30.66
  -1   9 -10  357.26   24.49
  -1  -9 -10  331.35   27.04
   1  -9  10  331.64   27.74
   1   9  10  346.78   27.60
   1  -9  10  372.60   28.12
  -1  -9 -10  334.14   27.33
  -1   9 -10  344.36   27.64
   1 -10 -13   22.12    9.97
   1  10 -13   33.31   10.82
   1 -10 -13   34.38   12.02
  -1  10  13   11.41    8.77
  -1 -10  13   24.38    9.72
  -1  10  11    8.88    6.54
  -1 -10  11   26.92    9.77
   1 -10 -11   21.00    8.41
   1  10 -11   23.43    9.06
   1  10 -11   44.28   12.50
   1 -10 -11   18.16    8.60
  -1 -10  11   17.44    7.41
  -1  10  11   11.28    7.65
   1 -10  -9    4.43    3.47
   1  10  -9   -1.72    7.49
   1 -10  -9    6.64    6.69
   1 -10  -9   11.64    5.87
   1  10  -9    5.78    4.79
  -1 -10   9   11.10    6.01
  -1  10   9   15.27    6.07
  -1  10   9   10.55    4.21
  -1 -10   9    6.91    4.88
  -1  10   9   12.64    6.26
  -1  10   7   52.30    7.78
  -1 -10   7   48.13    7.43
   1 -10  -7   55.83    5.56
   1  10  -7   49.32    8.26
   1 -10  -7   59.56    7.82
   1 -10  -7   64.02   10.71
   1  10  -7   54.52    8.00
   1 -10  -7   60.60    8.34
  -1 -10   7   50.63    8.53
  -1  10   7   40.44    8.37
  -1  10   7   52.38    7.48
  -1 -10   7   61.15    7.53
  -1  10   5   19.66    4.18
  -1 -10   5   19.06    3.79
  -1  10   5   19.22    3.73
  -1 -10   5   22.13    3.94
  -1 -10   5   20.23    4.49
  -1  10   5   18.35    4.14
   1 -10  -5   30.84    7.22
   1 -10  -5   22.34    4.04
   1 -10  -5   27.61    5.70
   1 -10  -5   20.18    4.04
  -1  10   5   27.76    7.17
   1  10  -5   19.16    5.54
  -1 -10   5   23.41    5.62
  -1  10   5   15.74    5.02
   1 -10  -5   15.54    2.85
   1  10  -5    6.36    4.15
  -1 -10   5   21.44    6.96
  -1 -10   3  296.46   10.49
  -1  10   3  308.22   10.73
  -1  10   3  314.72   10.01
  -1 -10   3  306.63    9.93
  -1  10   3  304.00    9.97
  -1 -10   3  280.57    9.73
  -1 -10   3  310.73   18.59
   1 -10  -3  298.22   18.27
  -1  10   3  303.85   16.93
   1  10  -3  312.11   17.22
   1  10  -3  296.78   14.35
  -1 -10   3  271.42   14.88
  -1  10   3  298.88    9.64
  -1  10   3  294.31   17.34
   1  10  -3  308.30   17.13
  -1 -10   3  321.53   20.03
   1 -10  -3  288.81   14.42
   1 -10  -3  299.10   10.94
   1 -10  -1   15.05    4.72
  -1 -10   1   12.88    4.82
  -1  10   1   17.32    4.70
   1  10  -1   19.70    5.41
  -1  10   1   20.16    5.20
   1  10  -1   14.13    3.70
  -1 -10   1   12.44    3.14
   1  10  -1   17.64    4.87
  -1  10   1   17.61    5.19
   1 -10  -1   19.99    6.21
  -1 -10   1   11.60    4.61
   1 -10   1   83.85    5.20
   1 -10   1   79.69    5.01
   1  10   1   82.36    5.16
  -1  10  -1   90.20    5.18
  -1 -10  -1   84.17    5.27
  -1  10  -1   91.32    9.60
  -1 -10  -1   83.96   10.34
  -1 -10  -1   78.59    9.22
   1  10   1   75.73    5.15
  -1  10  -1   83.71    8.50
   1  10   1   81.90    9.21
   1 -10   1   86.30    6.78
   1  10   1   82.27    7.59
   1 -10   1   86.29    7.05
   1  10   1   76.87    9.00
  -1 -10  -1   87.41    8.03
  -1  10  -1   87.22    8.95
   1 -10   1   88.53   12.26
   1  10   3  317.69   14.91
   1 -10   3  290.47   14.38
   1 -10   3  284.21   14.34
   1  10   3  311.12   14.92
   1 -10   3  306.13   14.96
   1  10   3  317.55   15.17
  -1 -10  -3  312.24   14.83
  -1  10  -3  311.61   14.94
  -1  10  -3  336.36   19.61
  -1 -10  -3  315.40   21.21
  -1 -10  -3  305.21   18.47
   1  10   3  308.01   18.26
  -1  10  -3  317.55   16.80
  -1  10  -3  321.33   17.41
   1  10   3  315.87   17.48
   1 -10   3  322.75   23.50
  -1 -10  -3  320.03   14.13
  -1  10  -3  329.39   20.10
   1 -10   3  334.69   16.82
  -1  10  -5    6.84    5.49
  -1 -10  -5    3.42    3.98
  -1 -10  -5    6.25    5.16
  -1 -10  -5   -2.25    4.02
  -1  10  -5   -2.62    3.87
   1  10   5    2.17    4.32
   1 -10   5    2.57    3.57
  -1 -10  -5    2.03    1.73
   1  10   5   -0.13    4.00
  -1  10  -5    4.70    3.51
   1 -10   5    5.04    4.45
   1  10   5    0.98    4.01
  -1  10  -7   17.59    6.77
  -1 -10  -7    7.30    6.44
  -1 -10  -7   18.01    6.50
  -1  10  -7   13.24    6.41
   1  10   7   16.75    6.15
   1 -10   7   11.70    6.26
   1  10   7   19.39    4.92
   1 -10   7   24.11    7.54
   1  10   7   28.43    7.06
  -1 -10  -9  221.04   21.34
  -1  10  -9  226.72   19.77
   1  10   9  262.96   20.09
   1 -10   9  193.32   20.04
  -1  10  -9  230.06   21.20
  -1 -10  -9  219.65   21.07
   1 -10   9  263.14   22.39
   1  10   9  292.61   23.78
  -1 -10 -11    0.67    7.82
  -1  10 -11   -6.37    7.90
   1 -10  11   -1.71    6.90
   1  10  11   -6.67    8.16
  -1 -10 -11    0.56    8.26
   1  11 -12  363.75   28.42
   1 -11 -12  377.10   28.81
   1 -11 -12  379.20   30.33
   1  11 -12  424.62   35.24
  -1  11  12  363.45   26.51
  -1  11  12  390.32   28.99
  -1 -11  12  389.26   28.40
  -1 -11  12  351.83   29.05
   1 -11 -10 1094.97   45.54
   1  11 -10 1182.54   47.31
   1  11 -10 1173.48   54.24
   1 -11 -10 1198.39   51.19
  -1  11  10 1132.42   45.56
  -1 -11  10 1095.58   47.63
  -1 -11  10 1141.84   44.85
  -1  11  10 1190.81   46.33
  -1 -11   8  202.94   14.43
  -1 -11   8  200.67   17.40
   1 -11  -8  205.10   15.51
   1 -11  -8  231.06   19.60
  -1  11   8  187.64   16.52
  -1  11   8  216.17   15.53
  -1 -11   8  222.27   16.41
  -1  11   8  206.00   15.84
   1 -11  -8  208.72   15.97
   1  11  -8  183.18   15.55
  -1 -11   6  866.15   28.62
  -1 -11   6  831.71   28.82
  -1  11   6  912.52   29.76
   1 -11  -6  903.48   27.88
   1 -11  -6  846.32   37.18
   1 -11  -6  909.06   33.51
  -1  11   6  859.37   35.05
  -1 -11   6  842.55   32.73
   1  11  -6  850.73   34.82
   1  11  -6  859.82   32.79
  -1  11   6  869.83   32.79
   1 -11  -6  865.39   23.90
  -1 -11   6  770.84   39.56
   1 -11  -6  872.17   28.85
  -1 -11   4 1995.83   42.85
  -1  11   4 2039.01   43.23
  -1 -11   4 2016.91   43.67
  -1  11   4 1987.59   43.79
  -1 -11   4 1952.86   42.84
  -1  11   4 2042.71   43.59
   1 -11  -4 2015.87   58.64
  -1 -11   4 1953.20   57.33
  -1  11   4 1979.37   54.43
  -1  11   4 1945.71   42.84
   1  11  -4 2136.04   55.79
   1  11  -4 2034.14   55.70
  -1  11   4 2014.90   56.18
   1 -11  -4 2119.95   48.69
  -1 -11   4 1951.12   61.38
   1 -11  -4 2095.49   44.42
   1  11  -2  470.39   22.60
  -1  11   2  505.83   22.92
   1  11  -2  460.21   17.82
  -1  11   2  470.85   10.88
  -1 -11   2  442.04   19.15
  -1  11   2  506.35   23.19
   1  11  -2  469.73   22.92
  -1 -11   2  411.74   23.61
   1 -11  -2  456.81   25.97
   1 -11  -2  464.98   23.93
  -1 -11   2  472.64   24.34
  -1 -11   0 1943.51   54.01
  -1  11   0 1919.29   50.59
   1 -11   0 1885.81   39.66
   1  11   0 1856.77   51.74
   1  11   0 1904.37   51.99
  -1  11   0 1848.13   51.14
   1 -11   0 1794.74   41.01
   1  11   0 1757.49   43.38
   1 -11   0 1813.40   57.98
  -1  11   0 1874.56   51.39
  -1 -11   0 1874.93   55.03
   1 -11   2 2002.23   43.62
   1  11   2 2056.04   44.44
   1  11   2 2036.92   43.96
   1 -11   2 1941.74   43.57
  -1  11  -2 2070.20   43.83
  -1 -11  -2 1951.33   43.58
  -1  11  -2 2049.86   56.88
  -1 -11  -2 2049.48   60.54
  -1 -11  -2 2034.33   56.96
  -1  11  -2 2005.86   52.57
   1  11   2 2065.03   56.18
   1  11   2 1993.38   54.27
   1 -11   2 1941.62   48.74
  -1  11  -2 2075.02   54.54
   1  11   2 1937.71   49.57
  -1 -11  -2 1993.82   48.99
   1 -11   2 1966.89   63.97
   1 -11   2 2020.52   48.04
   1  11   4  527.53   22.01
   1 -11   4  484.18   21.03
  -1 -11  -4  478.45   21.05
  -1  11  -4  482.55   21.17
  -1  11  -4  542.55   27.33
  -1 -11  -4  515.19   25.76
  -1 -11  -4  503.08   24.76
  -1  11  -4  483.80   23.25
   1  11   4  496.48   25.31
   1  11   4  480.43   23.07
  -1  11  -4  536.15   23.82
  -1 -11  -4  494.58   18.43
   1 -11   4  456.54   30.75
   1 -11   4  495.35   23.22
  -1  11  -6 1148.70   40.72
  -1 -11  -6 1085.20   39.80
  -1  11  -6 1108.80   43.06
  -1 -11  -6 1118.50   41.94
  -1 -11  -6 1051.04   41.47
   1  11   6 1144.38   42.07
  -1  11  -6 1148.75   37.87
   1  11   6 1105.09   37.46
   1  11   6 1104.79   40.42
   1 -11   6 1094.01   39.58
   1 -11   6 1123.46   42.20
  -1  11  -8  764.95   36.70
  -1 -11  -8  751.69   37.52
  -1  11  -8  787.57   37.48
  -1 -11  -8  721.27   36.16
   1  11   8  730.17   34.59
   1  11   8  761.80   36.97
   1 -11   8  723.49   35.56
   1 -11   8  757.21   37.88
  -1  11 -10  529.65   31.71
  -1 -11 -10  426.47   31.30
  -1 -11 -10  475.59   32.59
  -1  11 -10  485.26   33.19
   1 -11  10  474.33   32.97
   1 -11  10  508.49   33.15
   1  11  10  495.53   33.35
  -1 -12  13   -5.41    8.77
  -1  12  13    7.67    7.75
  -1  12  11    5.19    5.76
  -1 -12  11    8.16    9.43
   1 -12 -11   17.64    7.94
   1 -12 -11   -2.14    6.52
  -1 -12  11    4.54    6.16
  -1  12  11    9.39    7.78
   1 -12  -9   44.49   10.68
   1 -12  -9   18.79    7.20
   1  12  -9    8.77    4.72
  -1  12   9   27.67    8.00
  -1 -12   9   24.88    8.22
  -1  12   9   18.95    6.35
  -1 -12   9   28.67    6.99
  -1  12   9   24.79    7.44
  -1 -12   7    4.40    4.32
  -1 -12   7   -6.76    8.16
   1 -12  -7   -2.99    5.10
   1 -12  -7    8.56    4.65
  -1  12   7    0.01    4.86
  -1 -12   7    5.14    4.45
   1  12  -7   -3.82    4.13
  -1  12   7    7.99    5.37
  -1  12   7    0.38    3.63
  -1 -12   7    0.14    4.22
  -1 -12   5    4.02    2.93
  -1  12   5    2.47    2.33
  -1  12   5    6.38    3.03
  -1 -12   5   -0.01    2.39
  -1  12   5    1.71    2.67
  -1 -12   5    4.32    2.59
   1 -12  -5   -0.58    4.56
   1 -12  -5    1.13    4.50
  -1 -12   5   17.02    8.31
   1  12  -5   -0.82    4.18
  -1  12   5    6.91    5.15
   1 -12  -5   -1.02    2.62
   1  12  -5   -0.54    4.40
   1 -12  -5    1.07    2.41
  -1 -12   5    2.63    4.04
  -1  12   5   -5.00    4.90
  -1 -12   3    3.15    1.05
  -1 -12   3   -0.27    5.13
   1 -12  -3   -0.20    4.95
   1 -12  -3    3.64    1.69
  -1  12   3    2.95    5.22
   1  12  -3    1.54    4.44
   1  12  -3   -0.38    2.66
  -1  12   3    2.07    0.97
  -1 -12   3    5.00    3.34
  -1  12   3    4.66    3.75
   1  12  -3    3.83    4.05
  -1 -12   3    4.20    5.14
   1 -12  -1   11.32    5.58
  -1 -12   1    3.84    4.81
  -1 -12   1    9.53    5.98
  -1  12   1    2.53    4.41
   1  12  -1   -1.30    4.19
   1  12  -1    6.62    3.02
  -1  12   1    6.87    4.56
   1  12  -1    1.27    4.94
   1 -12  -1    0.64    4.70
  -1 -12   1    2.41    6.43
   1  12   1    3.84    1.34
   1 -12   1    2.88    1.25
  -1 -12  -1    8.08    5.77
  -1  12  -1    7.65    5.30
  -1 -12  -1   -1.02    4.99
   1  12   1    3.17    5.04
   1 -12   1    2.07    2.65
  -1  12  -1    7.37    4.15
   1  12   1    4.16    2.83
   1 -12   1    3.80    2.39
   1  12   1   -0.72    4.03
  -1  12  -1    5.94    4.93
   1 -12   1   -4.00    6.31
   1 -12   3    6.92    3.21
   1  12   3    5.59    3.13
   1 -12   3    2.21    2.15
  -1 -12  -3    5.46    2.90
   1  12   3    6.58    2.80
  -1  12  -3    7.91    3.21
  -1 -12  -3    6.79    5.62
  -1  12  -3   15.06    6.54
  -1 -12  -3   -4.65    4.35
   1 -12   3    1.66    3.46
  -1  12  -3    3.49    3.62
   1  12   3   -0.91    4.76
   1  12   3    8.20    4.29
  -1  12  -3   10.34    4.90
   1  12   3    4.69    4.77
  -1 -12  -3    3.38    2.49
   1 -12   3    0.15    6.88
   1  12   5   23.22    5.65
   1 -12   5    2.34    4.04
  -1  12  -5    8.73    5.69
  -1 -12  -5   12.64    7.00
  -1 -12  -5   18.80    6.41
  -1 -12  -5   14.64    5.36
  -1  12  -5   15.81    5.35
   1  12   5   15.38    5.88
   1 -12   5   12.67    5.14
  -1  12  -5   15.28    4.03
   1  12   5    9.70    5.05
   1 -12   5    5.33    6.72
  -1  12  -7   30.76    9.15
  -1 -12  -7   59.42   10.06
  -1 -12  -7   52.35   10.66
  -1  12  -7   64.68   10.13
  -1 -12  -7   42.23    8.68
   1 -12   7   44.82    9.53
   1  12   7   39.01    8.68
   1  12   7   54.41    8.65
   1  12   7   58.10    9.93
   1 -12   7   43.28    9.22
  -1 -12  -9  -10.14    7.57
  -1  12  -9    8.89    6.72
   1 -12   9   33.52   10.61
   1  12   9    5.21    5.83
  -1  12  -9   17.00    8.01
  -1 -12  -9    5.03    5.89
   1 -12   9    0.11    5.49
   1  12   9   11.93    6.97
  -1 -13  12  253.52   24.81
   1 -13 -12  215.04   23.56
  -1  13  12  261.97   23.41
   1 -13 -10  842.35   43.09
  -1  13  10  811.38   39.93
  -1 -13  10  790.74   40.25
  -1  13  10  841.32   38.09
  -1 -13  10  788.70   36.67
  -1 -13   8  343.95   23.24
   1 -13  -8  386.29   23.49
   1 -13  -8  380.92   26.84
  -1  13   8  399.38   25.73
  -1  13   8  391.33   23.08
  -1 -13   8  325.78   30.19
  -1 -13   8  367.62   21.03
  -1  13   8  398.77   21.98
   1 -13  -6  707.38   35.86
   1 -13  -6  761.57   33.23
  -1  13   6  740.86   34.09
   1  13  -6  727.76   33.98
  -1 -13   6  725.52   30.76
   1  13  -6  729.23   32.15
  -1  13   6  762.30   32.85
  -1 -13   6  674.60   38.80
  -1  13   6  767.22   26.39
  -1 -13   6  758.26   25.83
  -1  13   4  892.64   21.79
  -1 -13   4  880.96   21.71
  -1 -13   4  859.69   22.75
  -1  13   4  883.33   23.06
  -1  13   4  877.15   21.94
  -1 -13   4  818.17   21.47
   1 -13  -4  827.60   37.06
  -1 -13   4  903.31   38.20
   1  13  -4  890.75   35.53
  -1  13   4  919.94   35.83
  -1  13   4  902.77   21.72
   1  13  -4  898.39   35.84
  -1  13   4  848.79   35.21
  -1 -13   4  894.12   41.05
   1 -13  -4  882.97   24.36
   1 -13  -2   76.06   10.87
  -1 -13   2   69.00   10.51
   1  13  -2   68.43    9.60
  -1  13   2   79.78    9.97
   1  13  -2   70.10    7.05
  -1 -13   2   65.69    7.71
   1  13  -2   82.20   10.61
  -1  13   2   60.26    9.46
  -1 -13   2   68.10   10.72
  -1 -13   0  977.44   38.78
   1 -13   0 1006.25   25.51
   1  13   0 1003.35   37.82
  -1  13   0  990.68   36.25
   1  13   0  974.61   37.02
  -1  13   0  991.40   37.01
   1 -13   0  919.01   26.16
   1  13   0  993.59   28.47
   1 -13   0  955.93   42.88
  -1  13   0  940.19   36.43
  -1 -13   0  997.34   40.55
   1 -13   0 1001.67   40.13
   1 -13   2 1218.17   28.48
   1  13   2 1272.74   29.03
  -1 -13  -2 1168.76   28.67
  -1  13  -2 1236.45   44.39
  -1 -13  -2 1263.32   47.93
  -1 -13  -2 1224.04   44.64
   1 -13   2 1205.00   29.00
  -1  13  -2 1247.62   41.34
   1  13   2 1149.20   42.58
   1  13   2 1312.81   30.15
   1  13   2 1139.44   35.70
   1 -13   2 1198.24   36.10
   1  13   2 1294.51   43.53
  -1  13  -2 1258.22   42.65
   1 -13   2 1168.65   50.51
   1 -13   2 1206.13   34.48
   1  13   4  346.73   17.35
   1 -13   4  369.40   17.53
  -1 -13  -4  305.14   16.28
  -1  13  -4  369.41   17.84
  -1  13  -4  342.76   23.14
  -1 -13  -4  340.85   25.61
  -1 -13  -4  344.47   22.82
  -1 -13  -4  371.02   22.08
  -1  13  -4  350.19   21.19
   1  13   4  351.82   22.78
   1  13   4  323.02   20.77
  -1  13  -4  315.66   20.31
   1 -13   4  320.43   27.84
   1 -13   4  330.81   19.01
   1  13   6  813.84   33.74
   1 -13   6  802.55   33.34
  -1  13  -6  880.69   34.74
  -1 -13  -6  851.29   34.30
  -1  13  -6  845.46   39.66
  -1 -13  -6  900.00   39.38
  -1 -13  -6  811.39   36.99
   1  13   6  916.25   39.33
  -1  13  -6  907.20   35.50
   1  13   6  871.01   35.23
   1 -13   6  815.36   48.07
   1 -13   6  829.12   36.15
  -1  13  -8  653.55   36.04
  -1 -13  -8  569.02   33.51
  -1  13  -8  664.44   34.27
  -1 -13  -8  561.84   31.51
   1  13   8  660.26   34.28
   1  13   8  700.67   34.77
   1 -13   8  583.27   31.65
   1 -13   8  574.84   33.72
  -1  13 -10  271.76   24.30
   1 -13  10  256.80   25.26
  -1 -13 -10  277.35   25.54
  -1  14  11   35.87   10.47
  -1 -14  11   35.27   10.42
   1 -14 -11   25.24   10.24
  -1 -14   9    2.98    5.23
  -1  14   9    3.18    6.13
  -1 -14   9   21.93   12.15
  -1  14   9    4.80    5.19
   1 -14  -9    7.74    7.66
  -1 -14   7   31.07    5.93
  -1  14   7   34.44    6.47
   1 -14  -7   24.54    9.69
   1 -14  -7   18.29    6.63
   1 -14  -7   21.38    8.91
  -1  14   7   27.16    7.81
  -1 -14   7   31.97    7.51
   1  14  -7   37.01    8.13
  -1  14   7   27.49    7.24
  -1 -14   7   15.46    7.44
  -1 -14   7   35.45    7.42
  -1 -14   5    4.76    2.73
  -1  14   5    3.11    2.07
   1 -14  -5    0.93    5.17
  -1 -14   5   -0.73    6.22
   1 -14  -5    5.73    5.70
   1  14  -5    8.52    6.14
  -1  14   5    0.68    5.20
  -1 -14   5    4.94    4.28
  -1  14   5    6.63    5.99
   1  14  -5    3.53    5.44
  -1 -14   5   -6.19    7.92
   1 -14  -3   89.77   12.75
  -1 -14   3   65.23   10.84
   1  14  -3   79.67   10.88
  -1  14   3   45.61    8.53
  -1 -14   3   69.63    8.93
   1  14  -3   70.86   10.49
  -1  14   3   78.53   10.69
  -1 -14   3   72.49   11.74
  -1 -14   1    7.26    6.81
   1 -14  -1   11.84    6.96
  -1 -14   1   16.03    6.01
   1  14  -1   20.63    7.23
  -1  14   1   -0.08    5.36
   1  14  -1    7.93    3.22
   1  14  -1    3.88    4.87
  -1  14   1    8.96    5.83
   1 -14  -1    5.84    6.64
  -1 -14   1   16.67    7.67
   1 -14   1    3.71    6.78
  -1  14  -1    3.39    5.74
  -1 -14  -1   -1.87    5.52
  -1 -14  -1   -0.96    4.43
  -1  14  -1   10.11    5.83
   1 -14   1    0.89    2.28
   1  14   1   11.21    6.47
   1  14   1    4.11    3.46
   1  14   1   -0.59    5.37
  -1  14  -1    3.17    4.89
   1 -14   1   13.49    8.80
  -1 -14  -3  158.11    9.60
  -1 -14  -3  168.33   18.24
  -1  14  -3  193.37   17.39
  -1 -14  -3  149.30   15.75
   1  14   3  161.23   15.68
  -1  14  -3  177.52   15.16
   1  14   3  178.97   13.42
   1  14   3  166.52   15.58
  -1  14  -3  157.50   15.26
   1 -14   3  144.37   18.86
   1 -14   3  150.45   11.96
   1 -14   3  142.28    9.48
   1  14   3  161.02   10.07
   1  14   5  108.40   10.67
   1 -14   5  101.16   10.03
  -1 -14  -5  100.71   10.21
  -1  14  -5   78.98   12.45
   1 -14   5  113.21   12.31
   1  14   5   89.05   12.72
  -1  14  -5   80.94   11.21
  -1 -14  -5  102.84   13.15
  -1 -14  -5  108.02   13.85
  -1  14  -5  102.78   12.18
   1  14   5  128.85   13.65
   1 -14   5  106.68   18.39
  -1  14  -7  123.68   16.03
   1  14   7  126.94   15.85
   1 -14   7   98.10   14.20
  -1 -14  -7  128.91   16.00
  -1 -14  -7  121.98   15.22
   1  14   7   99.13   12.07
   1 -14   7  100.21   19.47
   1 -14   9  190.06   20.41
   1  14   9  174.52   19.06
  -1 -14  -9  137.82   17.61
  -1  14  -9  166.22   19.14
  -1 -15  10  726.01   37.38
   1 -15 -10  684.15   40.16
  -1  15  10  739.75   40.04
  -1 -15  10  703.44   49.34
  -1 -15  10  625.36   36.22
   1 -15  -8  554.99   34.14
   1 -15  -8  641.79   33.00
  -1  15   8  588.73   33.92
  -1  15   8  580.54   31.06
  -1 -15   8  550.23   40.44
  -1 -15   8  627.88   32.11
   1 -15  -6 1034.69   42.79
  -1  15   6 1074.90   44.54
  -1 -15   6  902.70   36.51
   1  15  -6 1047.81   44.17
   1  15  -6  969.66   40.98
  -1  15   6 1057.46   42.35
  -1 -15   6 1013.30   50.73
  -1 -15   6 1004.52   44.80
   1 -15  -6 1090.74   48.21
   1 -15  -4 1970.04   62.71
  -1  15   4 1987.03   62.55
  -1 -15   4 1880.74   52.28
   1  15  -4 2011.34   62.05
  -1  15   4 2043.91   61.91
   1  15  -4 2061.76   62.49
  -1 -15   4 1894.19   68.45
   1 -15  -4 1929.64   65.71
  -1 -15   4 1951.48   64.35
  -1 -15   2 1452.88   52.53
  -1  15   2 1488.28   50.23
   1  15  -2 1364.06   48.88
   1  15  -2 1372.61   49.43
  -1  15   2 1433.86   49.74
   1  15  -2 1373.39   37.78
  -1 -15   2 1351.99   53.90
   1 -15  -2 1434.79   52.98
  -1 -15   2 1348.68   51.91
  -1 -15   0 1406.25   51.62
   1  15   0 1403.45   49.89
  -1  15   0 1404.07   48.32
   1 -15   0 1410.78   32.96
   1  15   0 1419.30   36.28
  -1  15   0 1315.59   48.06
   1  15   0 1348.53   48.57
   1 -15   0 1332.33   55.65
   1 -15   0 1345.82   51.79
  -1 -15   0 1415.51   53.44
   1 -15   2  963.15   43.88
  -1 -15  -2  933.01   44.07
  -1  15  -2  989.44   41.57
  -1 -15  -2  995.47   42.84
   1  15   2 1039.74   42.33
  -1  15  -2  989.13   39.12
   1  15   2  981.96   31.48
  -1  15  -2 1025.72   40.62
   1  15   2  999.84   40.56
   1 -15   2 1001.49   48.73
   1 -15   2  985.67   30.92
  -1  15  -4  727.34   36.34
  -1 -15  -4  685.73   39.21
  -1 -15  -4  682.92   33.22
  -1 -15  -4  582.58   32.65
   1  15   4  689.45   34.98
  -1  15  -4  695.03   32.93
   1  15   4  694.83   33.25
  -1  15  -4  628.40   32.19
   1 -15   4  614.46   40.66
   1 -15   4  666.07   28.34
  -1  15  -6 1003.46   45.74
  -1 -15  -6  950.77   41.89
  -1 -15  -6  959.20   43.75
   1  15   6  947.73   40.21
  -1  15  -6 1017.38   41.22
   1 -15   6  914.53   54.09
   1 -15   6  990.15   40.24
   1  15   6 1012.07   44.81
  -1  15  -8  685.06   38.96
   1  15   8  655.30   37.57
   1 -15   8  616.97   47.12
   1 -15   8  680.18   36.77
  -1 -16  11   20.56   10.48
   1 -16 -11   18.07    9.75
  -1 -16   9  -10.29    8.25
  -1  16   9   -1.76    7.43
  -1 -16   9    5.93    5.46
  -1 -16   9    6.57    7.45
   1 -16  -9    7.19    8.35
  -1  16   9    2.40    5.29
  -1 -16   9   -3.69   10.14
  -1 -16   7   23.25    8.50
   1 -16  -7   13.52    9.17
  -1 -16   7   15.73    6.48
  -1  16   7    3.47    5.75
   1 -16  -7    6.21    6.39
   1 -16  -7   12.44    7.96
  -1  16   7   13.04    6.45
   1  16  -7   -3.12    5.69
  -1 -16   7   11.68    8.79
  -1 -16   5   44.34   11.14
   1 -16  -5   52.84   12.45
  -1 -16   5   27.33    6.88
   1  16  -5   40.25    9.37
  -1  16   5   42.68    9.96
   1 -16  -5   36.35    9.65
   1  16  -5   33.08    9.07
  -1  16   5   36.59    8.26
  -1 -16   5   36.63   12.51
  -1 -16   3   10.72    7.59
   1 -16  -3   14.49    8.33
   1  16  -3    5.83    6.52
  -1  16   3   -0.41    6.21
  -1 -16   3    7.59    7.47
  -1  16   3   -2.69    5.31
   1  16  -3   -2.87    5.83
  -1 -16   3    2.47    6.47
  -1 -16   1   -5.82    7.28
   1 -16  -1   -2.44    6.45
   1  16  -1   16.39    7.61
  -1  16   1   -0.75    5.69
  -1 -16   1   -2.30    5.21
   1  16  -1   -1.09    6.79
  -1  16   1    9.35    6.62
   1 -16  -1    7.74    8.58
   1 -16   1    1.30    5.64
  -1 -16  -1    4.87    7.66
   1  16   1    7.28    7.82
  -1  16  -1    7.73    6.60
  -1 -16  -1    1.30    5.43
   1  16   1   -0.62    6.85
  -1  16  -1    0.65    5.83
   1 -16   1    6.21    7.00
  -1 -16  -3   82.65   13.70
   1  16   3   64.29   12.09
  -1  16  -3   76.49   11.38
  -1 -16  -3   95.18   13.71
  -1  16  -3   66.10   10.68
   1  16   3   72.41   11.44
   1 -16   3   65.51   14.86
  -1  16  -5    8.86    7.78
  -1  16  -5   27.72    8.20
   1  16   5    9.61    7.45
  -1 -16  -5    6.09    5.21
  -1 -16  -5   16.27    8.83
   1 -16   5    9.61   10.57
   1  16   5    0.16    6.48
  -1  16  -5    9.83    6.57
   1  16   7   -3.32    9.37
   1  16   7   -2.90    5.38
   1 -16   7   12.18   11.02
   1 -17 -10  792.11   44.67
  -1 -17  10  739.30   43.26
  -1 -17   8  665.63   39.44
   1 -17  -8  658.96   38.87
   1 -17  -8  664.42   36.80
  -1 -17   8  712.72   39.08
  -1  17   8  690.77   38.86
  -1  17   8  729.42   37.43
  -1 -17   8  622.79   45.30
  -1 -17   8  724.26   35.48
   1 -17  -6  800.64   40.20
  -1  17   6  829.42   41.68
  -1 -17   6  860.79   35.34
   1  17  -6  900.33   43.37
  -1  17   6  838.31   40.09
   1  17  -6  918.32   41.73
  -1 -17   6  837.94   48.32
  -1 -17   6  834.25   43.15
   1 -17  -6  841.55   45.35
  -1 -17   4 1312.90   53.48
   1 -17  -4 1349.79   53.27
   1  17  -4 1350.80   51.76
  -1  17   4 1322.81   51.98
  -1 -17   4 1250.48   40.49
  -1  17   4 1313.04   50.66
   1  17  -4 1393.90   52.98
  -1 -17   4 1194.92   56.00
  -1 -17   4 1218.47   52.79
   1 -17  -4 1268.87   54.95
  -1 -17   2 1335.21   53.85
  -1  17   2 1298.67   50.75
   1  17  -2 1359.52   51.67
   1  17  -2 1395.59   52.41
  -1  17   2 1397.65   52.16
  -1 -17   2 1283.43   55.63
  -1 -17   2 1290.74   54.15
   1 -17  -2 1299.14   54.68
  -1 -17   0 1042.65   46.56
   1  17   0 1011.70   43.91
  -1  17   0 1018.68   42.93
   1  17   0 1016.47   43.97
  -1  17   0 1088.40   45.17
   1 -17   0  930.46   48.97
  -1 -17   0 1041.76   48.35
   1 -17   0 1023.92   47.43
  -1 -17  -2 1435.63   56.46
  -1  17  -2 1442.33   52.40
   1  17   2 1459.64   55.39
   1  17   2 1397.99   53.31
  -1  17  -2 1526.12   54.65
   1 -17   2 1360.93   62.54
   1 -17   2 1462.79   58.45
  -1 -17  -2 1435.18   59.59
  -1 -17  -4  622.26   32.96
  -1 -17  -4  616.81   36.11
   1  17   4  653.39   36.04
  -1  17  -4  662.57   34.64
  -1  17  -4  653.17   34.98
   1  17   4  651.92   34.83
   1 -17   4  626.70   43.39
  -1 -17  -4  717.32   42.44
   1  17   6  695.45   36.49
  -1  17  -6  744.45   37.23
   1 -17   6  642.17   46.84
   1  17   6  708.05   39.69
  -1 -17  -6  738.58   40.50
  -1 -18   9   -4.80    7.58
   1 -18  -9   16.30    8.66
  -1 -18   9   10.50    7.82
  -1  18   9    4.43    7.09
  -1 -18   9   -2.85    9.89
   1 -18  -7    1.08    7.74
  -1 -18   7   11.19    7.96
  -1  18   7    0.02    7.32
  -1 -18   7   11.19    7.96
   1 -18  -7    1.53    5.86
   1 -18  -7   -0.13    8.49
  -1  18   7  -10.52    8.89
   1  18  -7  -12.30    7.99
  -1 -18   7   20.85   12.95
   1 -18  -5   14.70    8.92
  -1 -18   5   17.51    8.10
  -1  18   5    4.80    6.82
   1  18  -5    6.67    7.79
  -1 -18   5   -0.05    7.78
   1 -18  -5   14.09    7.88
   1  18  -5   -0.87    6.07
  -1  18   5    7.54    7.50
  -1 -18   5   20.42   10.42
   1 -18  -3   12.66    8.89
  -1 -18   3   12.72    8.19
   1 -18  -3   19.06    8.03
  -1 -18   3    5.90    6.12
   1  18  -3    7.85    6.18
  -1  18   3   16.48    8.54
   1  18  -3    5.18    7.82
  -1  18   3    4.21    6.77
  -1 -18   3   28.16   12.43
  -1 -18   1  266.24   23.72
  -1  18   1  263.47   22.26
   1  18  -1  272.33   23.07
   1  18  -1  273.28   22.77
  -1  18   1  282.31   23.13
   1 -18  -1  213.78   23.74
  -1 -18   1  254.47   23.50
   1 -18  -1  242.99   23.05
  -1 -18  -1   13.48    8.67
   1 -18   1   43.98   11.43
   1  18   1   41.45    9.64
  -1  18  -1   31.72    8.95
  -1 -18  -1   45.85   11.39
  -1  18  -1   39.90   10.39
   1  18   1   55.50   11.34
   1 -18   1   39.44   12.06
   1 -18   3    7.12    7.08
  -1 -18  -3   -1.18    6.52
  -1  18  -3    0.23    5.39
   1  18   3   -9.24    8.15
  -1 -18  -3   -6.29    5.64
   1  18   3    6.24    6.36
  -1  18  -3    9.33    7.48
   1 -18   3    4.86    8.57
   1 -18   5  147.01   20.25
  -1 -18  -5  166.53   19.45
   1  18   5  153.35   19.32
   1  18   5  161.04   18.16
  -1  18  -5  181.22   19.06
   1 -18   5  143.05   23.07
  -1 -19   8  383.85   30.48
  -1  19   8  442.62   30.99
  -1 -19   8  390.25   37.62
  -1 -19   8  432.89   33.64
  -1 -19   6  346.58   29.04
   1 -19  -6  360.84   28.24
  -1  19   6  345.53   28.07
   1  19  -6  362.81   28.94
   1  19  -6  386.51   28.52
  -1  19   6  356.73   27.25
  -1 -19   6  358.69   33.35
   1 -19  -6  440.66   34.59
  -1 -19   6  298.83   27.64
   1 -19  -4  272.53   24.59
  -1 -19   4  313.16   27.53
  -1  19   4  295.02   25.42
   1  19  -4  307.49   25.34
   1  19  -4  325.90   26.37
  -1  19   4  285.83   24.47
  -1 -19   4  315.18   29.20
  -1 -19   4  303.84   27.15
   1 -19  -4  297.28   27.37
  -1 -19   2  466.68   32.74
   1 -19  -2  456.48   31.81
   1  19  -2  490.39   31.86
  -1  19   2  499.26   31.82
  -1  19   2  477.80   31.36
   1  19  -2  470.34   30.98
  -1 -19   2  454.29   34.14
   1 -19  -2  422.86   32.00
  -1 -19   2  431.19   32.26
  -1 -19   0  564.29   36.30
  -1  19   0  607.70   34.96
   1  19   0  641.43   36.76
   1  19   0  633.63   36.53
  -1  19   0  606.67   35.30
   1 -19   0  540.14   39.19
  -1 -19   0  680.61   41.31
   1 -19   0  659.73   40.35
  -1 -19  -2  443.29   32.04
  -1  19  -2  439.07   29.35
   1  19   2  452.56   31.21
   1  19   2  473.44   31.47
  -1  19  -2  484.30   31.24
   1 -19   2  440.46   36.10
   1 -19   2  446.68   33.17
  -1 -19  -2  422.18   33.22
  -1 -19  -4  338.96   28.32
   1  19   4  270.46   25.06
  -1  19  -4  323.64   25.99
  -1  19  -4  343.35   27.04
   1  19   4  325.39   26.81
  -1 -19  -4  360.89   32.11
   1 -19   4  281.55   27.29
   1 -19   4  266.62   31.05
   1  19   6  257.68   23.64
  -1  19  -6  238.31   22.40
  -1 -19  -6  269.33   25.77
   1 -20  -7   45.41   13.55
   1 -20  -7   36.60   11.36
  -1  20   7   57.41   13.50
  -1 -20   7   32.04   13.59
   1 -20  -5   72.69   15.40
  -1 -20   5   75.07   16.36
  -1  20   5   61.18   12.79
   1  20  -5   93.06   15.76
  -1 -20   5   47.47   11.20
   1 -20  -5   45.07   12.75
   1  20  -5   46.37   12.38
  -1  20   5   72.05   14.05
  -1 -20   5   27.27   10.38
  -1 -20   3   70.28   14.97
   1 -20  -3   70.42   15.75
   1  20  -3   57.80   13.17
  -1  20   3   50.71   12.12
  -1 -20   3   42.86   11.26
   1 -20  -3   47.21   12.79
  -1  20   3   58.42   12.03
   1  20  -3   34.63   11.16
  -1 -20   3   49.51   12.80
  -1  20   1   -5.73    6.37
   1  20  -1   -4.76    6.27
   1 -20  -1    2.62    6.54
  -1 -20   1   15.38   10.42
  -1  20   1   -0.18    7.04
   1  20  -1   -0.26    5.94
   1 -20  -1    6.29    8.02
  -1 -20   1   24.14   10.39
   1 -20   1   -6.88    8.26
  -1 -20  -1   13.41    9.48
   1  20   1   -6.33    7.37
  -1  20  -1    2.02    6.27
  -1 -20  -1   -6.66    8.42
  -1  20  -1    2.81    6.87
   1  20   1   -3.58    6.90
   1 -20   1   -9.06   10.13
   1 -20   3    0.79    7.67
  -1 -20  -3    0.02    7.52
  -1  20  -3   10.31    7.64
   1  20   3   -2.08    7.11
  -1 -20  -3   18.03    9.04
   1 -20   3   31.54   14.48
  -1  20  -3   16.39    8.85
   1  20   3  -13.27    8.86
  -1  20  -5    9.52    8.49
   1  20   5   35.42   10.48
  -1 -20  -5   28.88    9.47
   1  21  -6  238.15   25.47
   1 -21  -6  242.74   25.31
  -1 -21   6  183.48   26.05
   1 -21  -4  211.41   25.22
   1 -21  -4  198.43   22.66
   1  21  -4  205.48   22.58
   1  21  -4  238.59   24.06
  -1 -21   4  208.78   25.02
  -1  21   2  392.62   30.83
   1  21  -2  371.21   29.99
   1 -21  -2  361.26   30.57
  -1 -21   2  345.23   30.22
   1 -21  -2  381.40   32.85
  -1 -21   2  410.35   33.93
   1  21  -2  425.68   31.66
  -1  21   2  390.63   30.12
  -1 -21   0  211.44   24.08
   1 -21   0  190.63   22.78
  -1  21   0  141.39   18.10
   1  21   0  173.77   20.98
  -1  21   0  183.12   20.88
   1  21   0  164.69   21.33
   1 -21   0  160.36   22.22
  -1 -21   0  143.16   21.08
   1 -21   0  167.93   21.64
  -1  21  -2  329.14   27.88
  -1  21  -2  306.95   26.25
  -1 -21  -2  253.73   26.44
   1 -21   2  336.35   33.66
  -1 -22   3   35.45   13.80
  -1  22  -1   62.48   13.81
  -1  22  -3   42.48   10.82
  -2   0  14 1758.87   68.24
   2   0 -14 1670.16   67.41
  -2   0  14 1780.32   67.59
   2   0 -14 1720.47   70.89
  -2   0  12  472.63   29.54
  -2   0  12  510.18   30.67
   2   0 -12  436.96   29.14
   2   0 -12  426.83   30.06
   2   0 -10 3387.30   86.02
   2   0 -10 3219.80   80.00
  -2   0  10 3410.13   85.95
  -2   0  10 3430.82   68.95
  -2   0  10 3419.38   64.29
  -2   0  10 3535.95   86.04
   2   0 -10 3369.03   88.72
  -2   0   8 3081.01   75.14
   2   0  -8 3221.01   72.77
   2   0  -8 3237.58   78.38
  -2   0   8 3291.65   63.12
   2   0  -8 3226.56   75.98
   2   0  -6 3466.68   72.71
  -2   0   6 3439.37   72.11
  -2   0   6 3425.83   60.71
   2   0  -6 3412.62   74.11
  -2   0   6 3447.28   73.72
  -2   0   6 3343.09   71.93
  -2   0   6 3430.14   71.54
  -2   0   6 3585.98   72.89
   2   0  -6 3353.98   72.05
  -2   0   6 3391.34   68.72
   2   0  -6 3488.45   72.27
   2   0  -4 7392.96  127.71
   2   0  -4 7421.67  133.40
  -2   0   4 7513.13  134.85
   2   0  -4 7448.72  136.07
  -2   0   4 7592.03  132.59
   2   0  -4 7489.62  132.43
   2   0  -4 7500.05  131.72
  -2   0   4 7623.12  131.65
  -2   0   4 7487.83  132.52
  -2   0   2 4393.15   77.63
   2   0  -2 4383.14   77.56
  -2   0   2 4246.42   81.51
  -2   0   0 2119.73   43.80
   2   0   0 2133.95   44.08
  -2   0   0 2105.67   45.55
   2   0   0 2128.34   45.85
  -2   0   0 2147.55   42.00
   2   0   0 2150.68   45.55
  -2   0   0 2261.30   45.92
  -2   0  -2 7632.58  144.17
  -2   0  -2 7738.18  143.13
   2   0   2 7641.03  143.87
  -2   0  -2 7750.98  144.20
   2   0   2 8022.78  144.98
   2   0   2 7607.13  129.55
  -2   0  -2 7512.13  138.33
   2   0   2 7788.00  144.41
  -2   0  -2 7960.43  144.59
  -2   0  -4 1976.68   47.89
  -2   0  -4 1934.54   53.81
  -2   0  -4 2007.56   54.69
   2   0   4 1923.58   39.07
  -2   0  -4 1986.71   46.66
   2   0   4 1990.61   54.26
   2   0   6  788.51   34.91
  -2   0  -6  712.33   26.33
  -2   0  -6  781.09   34.95
   2   0   6  759.24   28.77
  -2   0  -6  755.11   34.59
   2   0   6  728.08   20.74
  -2   0  -6  784.90   26.74
  -2   0  -6  783.77   20.04
  -2   0  -8 1472.72   42.68
  -2   0  -8 1466.43   56.74
  -2   0  -8 1508.70   42.69
  -2   0  -8 1466.87   56.66
   2   0   8 1319.62   53.65
   2   0  10  438.32   32.71
  -2   0 -10  363.17   30.51
  -2   0 -10  389.43   30.46
  -2   1  13    9.46    8.64
  -2  -1  13   14.63    7.60
  -2   1  13   -1.50    6.63
  -2  -1  13    2.71    6.13
   2  -1 -13   -0.66    8.12
   2   1 -13    0.16    6.93
   2  -1 -13    6.24    7.26
   2   1 -13   -3.05    7.96
   2  -1 -11    3.19    6.93
   2   1 -11    5.05    7.37
  -2  -1  11   -3.62    6.59
  -2   1  11    7.98    7.42
  -2   1  11   -1.73    5.92
  -2  -1  11   -0.79    5.56
  -2  -1  11    0.90    1.44
  -2   1  11   -0.68    1.38
   2  -1 -11   -3.18    5.37
   2   1 -11    0.20    5.85
   2   1  -9    3.78    4.94
   2  -1  -9    2.68    4.26
   2  -1  -9   19.43    4.63
   2   1  -9   14.18    4.81
   2   1  -9   11.62    4.97
   2  -1  -9    8.31    5.95
  -2  -1   9   12.71    5.35
  -2   1   9   11.43    5.33
  -2   1   9   11.88    2.52
  -2   1   9   16.87    3.18
  -2  -1   9    4.83    2.17
  -2   1   9   18.71    5.95
  -2  -1   9    5.01    4.13
   2   1  -7   13.28    4.64
   2   1  -7   16.55    4.41
   2  -1  -7   14.12    5.24
   2  -1  -7   11.88    4.09
  -2  -1   7    8.88    2.17
   2   1  -7   15.83    4.94
   2  -1  -7   19.02    5.69
  -2   1   7   13.85    4.14
  -2  -1   7   10.08    4.35
  -2   1   7   18.34    4.57
  -2  -1   7    7.93    2.29
  -2   1   7   13.72    2.17
   2  -1  -7   14.24    3.58
  -2  -1   7   18.23    4.00
   2   1  -7   11.34    3.82
   2  -1  -5 2197.27   48.55
  -2   1   5 2218.12   48.45
  -2  -1   5 2226.41   48.45
  -2  -1   5 2196.86   41.97
  -2   1   5 2192.45   39.66
  -2  -1   5 2235.47   40.98
  -2  -1   5 2206.82   49.08
   2   1  -5 2180.99   49.31
   2  -1  -5 2202.34   50.91
  -2   1   5 2195.92   47.72
  -2   1   5 2263.05   47.34
  -2  -1   5 2245.07   48.54
   2   1  -5 2209.44   48.63
   2  -1  -5 2263.68   48.83
   2   1  -5 2229.70   48.62
  -2   1   5 2289.41   48.91
  -2  -1   5 2301.46   49.01
  -2  -1   5 2060.57   48.66
  -2   1   5 2102.30   47.34
   2   1  -5 2079.40   50.94
   2  -1  -5 2203.79   48.70
   2   1  -3  317.94    8.71
   2   1  -3  307.15    9.80
  -2  -1   3  315.93   10.91
   2   1  -3  292.08   10.45
   2  -1  -3  304.64    9.86
  -2   1   3  307.95   10.07
   2   1  -3  307.81   11.20
  -2  -1   3  327.12   11.47
  -2   1   3  292.72   11.02
  -2  -1   3  294.94   11.13
   2   1  -3  311.80   11.07
   2  -1  -3  313.75   11.14
   2   1  -3  289.38   12.95
   2  -1  -3  308.32   12.16
  -2  -1   3  300.88   13.27
  -2   1   3  308.35   12.07
  -2  -1   1 1055.58   21.35
   2   1  -1 1026.27   21.38
   2   1  -1 1084.16   22.57
  -2  -1   1 1037.31   22.03
  -2   1   1 1023.28   24.96
   2  -1  -1  997.24   25.56
  -2  -1   1 1080.70   24.84
   2   1  -1 1048.97   24.97
   2  -1  -1 1071.49   25.08
  -2   1   1 1076.23   25.04
  -2  -1   1 1087.78   25.16
  -2  -1  -1  752.90   23.46
  -2   1  -1  745.99   23.26
   2   1   1  781.69   23.87
   2  -1   1  770.32   23.52
   2  -1   1  751.39   23.64
  -2   1  -1  737.60   23.43
  -2  -1  -1  711.14   23.06
   2   1   1  750.51   23.83
  -2   1  -1  772.40   22.90
   2   1   1  760.38   22.24
  -2  -1  -1  742.92   22.12
   2  -1   1  742.87   23.27
  -2   1  -1  758.74   23.38
   2   1   1  744.80   16.82
  -2  -1  -1  716.34   16.38
  -2   1  -1  712.50   21.57
  -2  -1  -1  777.41   23.92
  -2   1  -1  755.67   18.12
  -2   1  -1  812.63   23.89
   2  -1   3  693.05   26.69
   2   1   3  749.80   27.59
  -2   1  -3  769.85   24.87
  -2   1  -3  759.38   27.84
  -2  -1  -3  785.10   27.43
   2   1   3  747.55   27.31
  -2   1  -3  754.65   27.64
  -2  -1  -3  744.59   27.54
   2  -1   3  715.57   15.86
   2   1   3  716.14   18.50
  -2  -1  -3  747.11   22.59
  -2   1  -3  760.92   24.22
  -2   1  -3  757.77   16.48
  -2   1  -5   94.49    8.89
  -2  -1  -5   95.04    8.52
  -2  -1  -5   77.24    9.84
  -2   1  -5   84.63   10.83
   2   1   5   84.88    8.65
  -2  -1  -5   82.86   11.02
  -2   1  -5   80.54   10.70
   2  -1   5   85.05    5.17
   2   1   5   75.13    5.73
  -2   1  -5   83.59    8.26
  -2  -1  -5   91.33    7.61
   2   1   5   74.89    9.96
   2  -1   5   99.07   11.57
  -2  -1  -7  101.65    9.39
  -2   1  -7   91.17    9.38
  -2   1  -7   89.53   12.99
  -2  -1  -7   85.24   12.63
   2   1   7   90.26   12.66
   2  -1   7  101.98   13.83
   2   1   7   76.65    6.87
  -2   1  -7  102.25   10.00
  -2  -1  -7   96.38    8.74
  -2   1  -7   93.35   12.93
  -2  -1  -7  103.77   13.69
   2   1   9    3.31    6.58
   2  -1   9    4.22    7.38
  -2  -1  -9    4.13    6.85
  -2   1  -9    0.51    6.09
  -2  -1  -9   -3.50    5.93
  -2   1  -9    0.38    6.67
   2   2 -14  761.29   45.53
   2  -2 -14  739.36   44.57
  -2   2  14  756.65   42.31
  -2  -2  14  696.05   41.36
  -2   2  14  749.81   41.97
  -2  -2  14  759.57   42.29
   2   2 -14  683.64   41.39
   2  -2 -14  764.86   43.61
   2  -2 -12 1120.23   50.09
   2   2 -12 1131.40   50.45
   2  -2 -12 1101.91   47.65
   2   2 -12 1094.40   47.11
  -2  -2  12 1052.15   46.47
  -2   2  12 1037.19   45.82
  -2   2  12 1123.01   46.48
  -2  -2  12 1077.35   45.55
  -2  -2  10 2421.51   67.26
  -2   2  10 2470.38   68.16
   2   2 -10 2527.75   69.08
   2  -2 -10 2464.93   68.89
  -2   2  10 2356.35   57.23
   2   2 -10 2521.69   72.06
   2  -2 -10 2383.65   70.74
  -2  -2  10 2399.48   48.23
  -2   2  10 2384.55   48.76
  -2  -2  10 2424.90   56.55
  -2  -2  10 2338.92   67.92
   2   2 -10 2279.43   58.73
  -2   2  10 2483.23   68.16
  -2   2   8 2878.47   68.73
  -2  -2   8 2831.10   68.18
   2  -2  -8 2861.31   69.35
   2   2  -8 2795.42   68.96
  -2  -2   8 2844.35   58.01
  -2   2   8 2821.30   59.42
  -2  -2   8 2809.46   51.44
   2   2  -8 2831.46   71.31
   2  -2  -8 2773.20   71.25
  -2  -2   8 3005.80   70.92
  -2  -2   8 2872.12   60.54
  -2   2   8 2826.86   51.21
  -2   2   8 2885.72   57.14
  -2   2   8 2795.69   67.86
  -2  -2   8 2779.53   59.85
   2   2  -8 2655.72   64.66
   2  -2  -8 2837.74   65.18
   2  -2  -6 1251.88   34.49
   2   2  -6 1183.87   34.15
  -2   2   6 1225.06   34.08
  -2  -2   6 1247.80   34.01
  -2  -2   6 1231.42   28.31
  -2   2   6 1207.00   27.19
   2   2  -6 1197.56   35.08
   2  -2  -6 1258.79   37.05
  -2  -2   6 1191.48   25.89
  -2  -2   6 1251.23   35.09
  -2  -2   6 1210.69   34.76
  -2  -2   6 1255.73   34.63
  -2   2   6 1241.34   32.81
   2  -2  -6 1198.12   33.85
  -2   2   6 1245.33   34.34
   2   2  -6 1244.58   34.30
  -2  -2   6 1260.25   34.56
   2   2  -6 1099.71   33.84
   2  -2  -6 1277.09   33.72
  -2   2   6 1259.31   33.39
  -2  -2   6 1195.83   33.25
  -2   2   4 9638.22  162.70
  -2  -2   4 9655.20  162.70
  -2  -2   4 9400.42  156.95
   2  -2  -4 9660.54  156.52
  -2  -2   4 9464.73  161.62
   2   2  -4 9367.94  161.87
   2   2  -4 9632.59  159.19
  -2   2   4 9999.00  160.44
  -2  -2   4 9803.83  163.81
   2   2  -4 9815.22  163.82
   2  -2  -4 9490.03  159.70
  -2   2   4 9870.64  159.90
  -2  -2   4 9378.02  167.03
   2  -2  -4 9493.49  164.24
  -2   2   4 9610.15  163.93
   2   2  -4 9441.20  165.31
   2   2  -4 9595.98  162.37
  -2   2   4 9589.68  162.51
  -2  -2   4 9607.71  162.56
   2  -2  -4 9569.56  162.36
  -2   2   2 4879.72   86.43
   2   2  -2 4676.31   87.38
  -2  -2   2 4857.75   88.38
   2   2  -2 4779.31   88.32
  -2  -2   2 4759.89   86.41
   2   2  -2 4949.59   87.05
  -2  -2   2 4900.83   88.69
   2   2  -2 4681.48   88.17
   2  -2  -2 4831.19   87.74
  -2   2   2 4860.87   87.98
  -2  -2   2 4788.63   88.12
  -2   2   2 4761.47   86.96
   2  -2  -2 4874.52   87.27
   2  -2   0 2944.37   58.34
  -2  -2   0 2952.70   58.43
  -2   2   0 2957.74   58.38
   2   2   0 2910.32   58.40
   2  -2   0 2993.94   58.92
  -2  -2   0 2904.62   58.61
  -2   2   0 2952.94   58.51
   2   2   0 2931.35   58.89
   2  -2   0 2887.44   59.77
  -2   2   0 2948.75   59.31
  -2  -2   0 2964.38   54.80
   2   2   0 2902.17   60.61
   2   2   0 2937.31   55.10
  -2  -2   0 2866.26   53.94
   2   2   0 2972.26   54.22
  -2  -2   0 2874.99   54.16
  -2   2   0 2981.92   58.93
  -2   2   0 2893.33   54.19
  -2   2   0 2960.97   52.82
  -2   2   0 2839.16   57.74
   2  -2   0 2693.99   54.82
   2  -2   2 4096.44   83.52
   2   2   2 4016.10   83.16
  -2  -2  -2 4133.98   83.49
  -2   2  -2 4101.02   83.21
   2  -2   2 3986.73   83.62
  -2  -2  -2 3974.03   83.37
  -2   2  -2 4060.94   83.58
   2   2   2 4104.70   84.06
  -2   2  -2 3946.82   80.94
   2   2   2 4077.97   82.39
   2   2   2 3890.89   81.96
  -2   2  -2 3953.58   84.06
   2  -2   2 4086.14   84.78
  -2  -2  -2 4056.01   81.24
   2   2   2 4004.76   73.75
  -2  -2  -2 3987.68   70.87
  -2   2  -2 4079.60   70.24
  -2   2  -2 3900.19   80.30
  -2  -2  -2 4098.62   84.06
   2  -2   2 4118.92   83.63
  -2   2  -2 4010.36   83.41
   2  -2   4 2458.17   61.87
   2   2   4 2370.93   61.17
  -2   2  -4 2277.46   55.25
  -2  -2  -4 2367.46   60.04
   2   2   4 2294.82   55.05
  -2   2  -4 2367.23   62.23
  -2  -2  -4 2402.95   61.73
  -2   2  -4 2408.91   61.79
   2  -2   4 2258.05   43.14
   2   2   4 2340.49   48.64
  -2   2  -4 2425.82   56.15
  -2  -2  -4 2341.97   50.95
   2  -2   4 2428.42   62.41
   2   2   6 1003.56   39.84
   2  -2   6  971.62   39.37
  -2   2  -6 1095.13   34.55
  -2  -2  -6 1075.20   31.89
  -2  -2  -6 1090.73   41.28
   2   2   6  967.60   30.90
  -2   2  -6 1002.51   41.13
  -2  -2  -6 1021.33   40.53
  -2   2  -6  999.01   40.37
   2  -2   6  902.36   23.05
   2  -2   6  936.52   22.61
   2   2   6 1091.09   28.69
  -2   2  -6 1029.19   33.79
  -2  -2  -6 1030.96   29.29
  -2  -2  -6  945.89   28.17
  -2   2  -8 1440.86   44.23
  -2  -2  -8 1351.86   54.22
  -2   2  -8 1372.62   55.90
  -2   2  -8 1480.31   44.97
   2  -2   8 1396.80   54.76
   2   2   8 1463.35   55.83
  -2  -2  -8 1444.00   56.04
  -2   2  -8 1420.70   55.56
  -2  -2 -10  610.07   39.04
  -2   2 -10  720.43   42.38
  -2  -2 -10  650.35   40.05
  -2   2 -10  641.80   40.76
   2  -2  10  658.34   40.31
   2   2  10  681.23   41.04
  -2   3  13   69.89   13.05
  -2  -3  13   67.55   12.78
   2  -3 -13  116.28   15.87
   2   3 -13   54.72   12.67
   2  -3 -13   75.73   14.47
   2   3 -13   76.02   15.11
  -2  -3  13   99.36   14.45
  -2   3  13   81.80   13.81
   2   3 -11   -3.32    6.63
   2  -3 -11    1.45    5.58
   2   3 -11    2.29    6.16
   2  -3 -11   -5.88    4.95
  -2   3  11    3.62    4.65
  -2  -3  11    8.15    6.15
  -2   3  11    0.47    1.70
  -2  -3  11    3.86    5.00
  -2   3  11    1.18    5.78
  -2   3   9   28.40    6.48
  -2  -3   9   26.84    6.59
   2   3  -9   29.87    7.38
   2  -3  -9   17.43    5.51
  -2  -3   9   31.64    4.77
  -2   3   9   35.32    5.35
   2   3  -9   27.06    6.94
   2  -3  -9   25.01    7.29
  -2  -3   9   26.88    3.24
  -2   3   9   21.09    6.03
  -2  -3   9   39.20    8.17
  -2  -3   9   24.31    3.67
  -2   3   9   16.77    3.44
  -2  -3   9   23.98    4.44
   2   3  -9   22.26    4.37
   2   3  -7   70.96    8.52
   2  -3  -7   70.61    8.06
   2   3  -7   79.94    8.55
   2  -3  -7   82.95    8.69
  -2   3   7   63.30    5.60
  -2  -3   7   66.70    6.05
  -2  -3   7   68.71    5.07
   2  -3  -7   73.61    3.70
   2  -3  -7   62.83    8.84
   2   3  -7   72.27    8.57
   2  -3  -7   74.76    7.69
  -2  -3   7   61.23    7.98
  -2   3   7   72.61    8.17
  -2   3   7   60.28    6.78
  -2  -3   7   71.78    5.79
  -2  -3   7   71.63    6.65
  -2   3   7   73.59    6.05
  -2  -3   7   69.81    6.89
   2   3  -7   78.64    7.41
   2  -3  -7   73.69    7.60
   2   3  -5  349.95   14.40
   2  -3  -5  351.63   14.41
  -2   3   5  365.01   14.54
  -2  -3   5  365.13   14.60
  -2  -3   5  357.97   14.30
  -2   3   5  381.07   14.85
  -2   3   5  345.99   11.42
  -2  -3   5  355.71   12.89
   2  -3  -5  331.72   12.00
  -2  -3   5  344.93   12.27
  -2  -3   5  349.01   14.70
   2   3  -5  361.08   15.05
   2   3  -5  356.76   15.54
  -2   3   5  371.35   13.32
  -2  -3   5  369.82   15.51
  -2   3   5  347.99   13.50
   2   3  -5  349.37   14.29
  -2  -3   5  357.54   16.10
   2  -3  -5  343.22   15.18
  -2   3   5  360.44   13.40
  -2   3   3  457.70   14.28
   2   3  -3  464.09   13.96
  -2  -3   3  451.55   14.35
   2  -3  -3  453.28   13.87
   2   3  -3  440.47   13.96
   2  -3  -3  467.88   13.22
  -2   3   3  442.08   12.77
  -2  -3   3  457.83   14.08
   2   3  -3  465.69   12.43
  -2  -3   3  458.21   12.24
   2   3  -3  462.89   14.83
  -2  -3   3  428.17   14.71
  -2  -3   3  453.60   15.44
   2   3  -3  464.18   16.07
   2  -3  -3  459.16   11.03
  -2  -3   3  453.85   15.57
   2   3  -3  448.04   15.46
  -2   3   3  452.33   11.37
  -2   3   3  443.35   14.90
  -2   3   3  435.19   16.34
  -2  -3   3  459.74   15.68
   2  -3  -3  463.75   15.80
   2  -3  -1   66.08    5.05
   2   3  -1   62.00    5.02
  -2   3   1   60.43    4.87
  -2  -3   1   61.98    4.91
   2  -3  -1   67.56    5.80
  -2   3   1   56.87    5.18
   2   3  -1   59.77    5.96
   2   3  -1   66.93    5.78
  -2  -3   1   65.05    6.12
  -2  -3   1   63.07    4.97
   2   3  -1   67.04    5.28
  -2   3   1   73.39    4.28
  -2  -3   1   53.27    4.61
  -2   3   1   69.95    5.07
  -2   3   1   58.18    5.39
  -2   3   1   60.43    4.14
   2  -3  -1   64.35    6.49
   2  -3  -1   70.78    5.01
   2   3   1 1334.64   34.50
   2  -3   1 1329.13   34.38
  -2  -3  -1 1406.13   34.80
  -2   3  -1 1325.10   34.34
   2  -3   1 1396.79   35.05
   2   3   1 1368.59   35.16
  -2  -3  -1 1332.28   34.50
  -2   3  -1 1311.08   34.37
  -2   3  -1 1349.87   36.74
  -2   3  -1 1363.03   34.62
   2   3   1 1321.21   33.32
   2   3   1 1347.19   34.76
  -2  -3  -1 1333.36   32.09
   2  -3   1 1345.24   36.55
   2   3   1 1319.36   30.53
  -2  -3  -1 1396.66   31.14
   2  -3   1 1378.69   25.05
  -2   3  -1 1376.61   29.09
  -2  -3  -1 1382.64   29.60
  -2   3  -1 1290.29   34.39
   2  -3   1 1395.11   34.51
   2  -3   1 1298.77   27.62
  -2   3  -1 1363.94   34.29
  -2   3  -3    3.26    3.00
   2   3   3    0.64    2.92
  -2  -3  -3    1.36    3.74
   2   3   3    1.57    2.83
  -2   3  -3   -0.12    4.33
  -2  -3  -3   -1.99    3.51
  -2   3  -3   -0.47    3.52
   2   3   3    1.82    2.07
   2  -3   3    1.99    0.93
   2  -3   3   -0.69    3.70
  -2   3  -3   -0.30    1.22
  -2   3  -3    0.87    2.89
  -2  -3  -3    3.07    1.52
   2   3   3   -4.92    3.41
   2  -3   3   -1.06    3.58
  -2   3  -5   26.15    5.34
  -2   3  -5   29.29    7.67
  -2  -3  -5   35.75    7.60
   2   3   5   25.94    4.77
  -2  -3  -5   33.57    7.71
  -2   3  -5   22.58    7.19
   2   3   5   20.82    4.04
   2  -3   5   33.07    6.69
   2  -3   5   25.79    2.50
  -2   3  -5   38.19    6.67
  -2  -3  -5   29.04    4.11
   2   3   5   35.20    7.87
   2  -3   5   22.17    5.95
  -2  -3  -7  116.48    9.76
  -2   3  -7  112.70   11.02
  -2   3  -7  105.13   14.06
  -2  -3  -7  122.44   14.22
   2   3   7  109.15   14.13
   2  -3   7  109.64   13.61
   2   3   7   96.28    8.50
  -2  -3  -7  118.76    8.52
  -2   3  -7  111.18   11.29
  -2  -3  -7   79.88   12.33
  -2   3  -7  103.34   13.60
   2   3   9   34.32   10.07
   2  -3   9   24.42    8.91
  -2   3  -9   37.79   11.35
  -2  -3  -9   27.68    9.65
  -2   3  -9   29.83    9.85
  -2  -3  -9   37.30   10.85
   2   4 -14  807.38   47.64
   2  -4 -14  847.39   47.71
  -2   4  14  875.95   45.89
  -2  -4  14  775.85   43.29
   2  -4 -14  824.97   45.82
   2   4 -14  802.28   45.23
  -2  -4  14  854.31   45.90
   2   4 -12  437.15   30.58
   2  -4 -12  372.37   27.91
  -2   4  12  428.50   28.23
  -2  -4  12  440.79   29.33
  -2   4  12  466.57   28.72
  -2  -4  12  441.84   28.15
   2  -4 -12  352.50   26.31
   2   4 -12  405.14   28.11
   2  -4 -10  690.79   32.46
   2   4 -10  682.04   32.38
  -2   4  10  657.11   25.18
   2   4 -10  712.62   34.89
   2  -4 -10  704.43   34.70
  -2  -4  10  669.70   19.58
  -2   4  10  699.75   21.28
  -2  -4  10  672.88   20.28
  -2   4  10  679.49   31.63
  -2  -4  10  663.86   30.99
  -2  -4  10  702.30   21.64
  -2   4  10  666.36   31.21
  -2  -4  10  654.51   31.90
   2  -4  -8 1024.86   35.76
   2   4  -8 1018.75   35.60
  -2  -4   8 1063.25   30.40
  -2   4   8 1031.78   29.71
   2  -4  -8 1032.87   23.25
   2   4  -8 1057.48   38.16
   2  -4  -8 1030.14   38.37
  -2  -4   8 1038.73   26.94
  -2  -4   8 1016.56   36.56
  -2   4   8 1064.24   28.49
  -2  -4   8 1034.40   27.61
  -2  -4   8 1081.31   30.90
  -2   4   8 1034.96   34.55
  -2   4   8 1065.78   35.70
  -2  -4   8 1012.43   34.87
   2   4  -6 1285.88   35.23
   2  -4  -6 1258.62   34.99
  -2  -4   6 1351.21   35.70
  -2   4   6 1341.84   35.62
   2   4  -6 1242.07   35.11
   2  -4  -6 1266.12   35.06
  -2   4   6 1310.70   35.48
  -2  -4   6 1273.28   34.72
  -2  -4   6 1297.63   32.49
  -2   4   6 1285.00   30.86
   2   4  -6 1294.91   37.19
   2  -4  -6 1244.77   38.89
  -2  -4   6 1238.89   36.02
  -2  -4   6 1252.25   30.89
   2  -4  -6 1252.76   33.58
  -2  -4   6 1218.71   36.30
  -2  -4   6 1243.82   31.29
  -2  -4   6 1299.79   36.71
   2   4  -6 1256.67   36.34
  -2   4   6 1296.34   32.96
  -2   4   6 1248.35   31.97
  -2  -4   6 1294.70   34.20
   2  -4  -6 1306.88   36.34
  -2   4   6 1254.94   33.36
  -2  -4   6 1231.18   36.34
  -2  -4   4 2743.15   53.91
   2   4  -4 2619.42   53.62
   2  -4  -4 2637.45   53.66
  -2   4   4 2740.15   53.89
  -2  -4   4 2741.26   53.81
  -2   4   4 2674.38   53.85
   2  -4  -4 2758.67   50.38
   2  -4  -4 2728.96   53.48
  -2  -4   4 2715.24   53.97
  -2   4   4 2592.13   49.69
  -2  -4   4 2634.85   54.58
  -2  -4   4 2746.45   54.09
  -2  -4   4 2686.08   54.90
   2   4  -4 2549.34   54.12
  -2  -4   4 2584.98   56.51
  -2   4   4 2710.93   49.79
  -2  -4   4 2641.55   54.68
   2   4  -4 2631.87   56.23
  -2  -4   4 2611.57   56.36
  -2   4   4 2723.96   50.03
  -2   4   4 2721.86   55.53
   2  -4  -4 2729.58   57.64
  -2  -4   4 2647.36   56.37
  -2   4   4 2681.55   50.13
   2  -4  -2 3847.07   72.37
   2   4  -2 3883.81   72.41
  -2  -4   2 3914.59   67.58
   2   4  -2 4050.30   76.63
  -2   4   2 3921.76   74.00
  -2  -4   2 4019.76   76.64
   2  -4  -2 3971.44   74.59
  -2  -4   2 3914.45   76.39
   2   4  -2 3926.80   76.35
  -2   4   2 3958.36   71.85
  -2  -4   2 3915.29   74.63
  -2   4   2 4062.49   73.87
   2   4  -2 3975.00   75.29
  -2  -4   2 3835.78   72.06
  -2  -4   2 3833.91   74.43
  -2  -4   2 3988.18   76.29
   2   4  -2 3790.25   75.66
   2   4  -2 3787.92   71.82
  -2   4   2 3894.40   74.79
  -2   4   2 3934.48   79.07
   2  -4  -2 3877.70   78.73
   2  -4  -2 4013.07   75.41
  -2  -4   2 3987.48   72.04
  -2   4   2 3921.20   74.28
   2  -4  -2 3928.11   74.38
   2  -4  -2 4056.62   75.25
  -2  -4   0 1446.91   33.65
   2  -4   0 1409.92   33.49
   2   4   0 1450.23   33.74
  -2   4   0 1374.76   33.19
  -2   4   0 1411.16   33.36
  -2  -4   0 1355.46   33.37
   2  -4   0 1413.77   37.41
   2   4   0 1468.87   39.46
  -2   4   0 1448.63   35.86
   2  -4   0 1434.33   36.10
  -2  -4   0 1393.13   36.34
  -2  -4   0 1438.77   30.61
   2   4   0 1469.37   36.16
  -2  -4   0 1459.29   33.24
  -2   4   0 1466.51   29.44
   2  -4   0 1513.71   29.77
   2   4   0 1380.19   33.06
  -2  -4   0 1428.58   32.74
   2   4   0 1381.96   32.77
  -2   4   0 1429.44   32.60
  -2   4   0 1415.55   35.95
   2  -4   0 1442.80   33.19
   2  -4   0 1487.23   36.39
   2  -4   0 1434.19   32.57
  -2   4   0 1446.89   32.70
   2  -4   0 1463.19   30.85
   2  -4   2 3376.32   72.99
  -2  -4  -2 3408.28   73.09
   2   4   2 3350.17   72.84
  -2   4  -2 3496.54   73.19
  -2  -4  -2 3357.17   73.27
  -2   4  -2 3410.25   73.21
   2   4   2 3512.49   73.96
   2  -4   2 3363.33   73.26
   2   4   2 3335.99   79.40
  -2   4  -2 3391.85   72.80
  -2   4  -2 3368.37   76.53
   2  -4   2 3427.57   74.08
   2   4   2 3428.55   71.48
   2   4   2 3434.14   73.11
  -2  -4  -2 3412.96   70.88
   2   4   2 3282.51   67.55
  -2   4  -2 3300.03   73.11
   2  -4   2 3565.60   60.33
  -2  -4  -2 3347.85   68.64
  -2  -4  -2 3469.08   65.20
  -2   4  -2 3414.90   64.35
  -2   4  -2 3382.99   73.10
   2  -4   2 3665.45   74.66
   2  -4   2 3303.48   72.59
  -2  -4  -2 3375.13   74.20
   2  -4   4 1932.00   54.18
   2   4   4 1972.83   54.82
  -2   4  -4 1985.92   55.06
  -2  -4  -4 1988.77   55.36
  -2   4  -4 2065.54   58.15
  -2   4  -4 2065.20   52.26
   2   4   4 1918.50   48.21
  -2  -4  -4 1978.40   53.37
   2   4   4 1992.68   46.65
   2  -4   4 1994.18   37.39
  -2   4  -4 2068.09   39.76
  -2  -4  -4 2012.04   40.77
  -2   4  -4 1993.99   52.15
   2  -4   4 1973.60   55.16
   2   4   6 2313.84   67.51
   2  -4   6 2345.56   67.44
  -2   4  -6 2345.71   70.49
  -2   4  -6 2421.90   61.18
   2   4   6 2226.64   54.64
  -2  -4  -6 2285.95   66.22
  -2   4  -6 2339.04   67.88
  -2  -4  -6 2325.74   67.86
   2   4   6 2307.17   54.40
  -2  -4  -6 2380.99   50.34
  -2   4  -6 2340.04   61.50
   2  -4   6 2403.46   68.95
  -2   4  -8 2305.16   62.46
  -2   4  -8 2353.90   77.36
  -2  -4  -8 2267.63   73.69
  -2   4  -8 2277.05   73.85
  -2  -4  -8 2176.72   71.42
  -2   4  -8 2280.88   63.79
   2  -4   8 2272.89   73.09
   2   4   8 2207.97   72.58
  -2  -4 -10  676.77   40.86
  -2   4 -10  699.90   41.70
  -2  -4 -10  701.97   41.77
  -2   4 -10  693.52   43.29
   2   4  10  689.23   41.67
   2  -4  10  668.10   40.50
  -2  -5  13   19.86    9.30
  -2   5  13   17.76    7.75
   2  -5 -13   29.46    9.25
   2   5 -13   12.00    7.09
   2   5 -13   37.57   12.42
   2  -5 -13   14.92    9.85
  -2  -5  13   15.27    8.04
  -2   5  13   23.16    8.58
   2  -5 -11   44.88    9.96
   2   5 -11   48.87   10.87
   2  -5 -11   40.72    9.55
   2   5 -11   49.20    9.60
  -2   5  11   24.35    7.73
  -2  -5  11   49.74   10.32
  -2   5  11   45.83    5.28
  -2   5  11   43.57    9.41
  -2  -5  11   40.69    8.72
  -2   5   9    5.15    4.59
  -2  -5   9    4.19    4.70
   2  -5  -9   10.05    5.32
   2   5  -9   16.85    5.95
  -2   5   9    5.75    3.26
   2   5  -9   13.22    6.44
  -2  -5   9   11.16    3.35
   2  -5  -9    2.09    4.93
  -2   5   9    7.87    5.12
  -2  -5   9   15.33    5.81
  -2  -5   9    5.00    2.79
  -2   5   9    8.05    3.23
  -2  -5   9   12.39    3.63
   2  -5  -7  404.72   19.27
   2   5  -7  387.21   18.92
  -2   5   7  392.35   15.97
  -2  -5   7  363.51   16.32
   2  -5  -7  385.90   13.38
   2   5  -7  356.32   19.67
   2  -5  -7  359.26   20.68
   2  -5  -7  350.62   17.34
  -2  -5   7  379.88   19.50
  -2  -5   7  350.09   17.84
  -2  -5   7  392.89   15.43
  -2   5   7  388.37   15.95
  -2   5   7  377.43   16.76
  -2   5   7  355.25   17.18
  -2  -5   7  371.98   18.41
   2   5  -7  358.91   18.26
   2  -5  -7  349.94   18.00
  -2   5   5   43.19    5.30
  -2  -5   5   47.04    5.20
  -2   5   5   39.37    4.57
  -2  -5   5   35.06    4.61
   2   5  -5   32.43    4.52
   2  -5  -5   43.24    5.16
  -2  -5   5   40.03    4.84
   2  -5  -5   39.69    3.30
   2  -5  -5   37.84    5.10
   2   5  -5   35.17    5.47
  -2  -5   5   39.67    5.04
  -2  -5   5   44.92    5.44
  -2  -5   5   43.44    5.96
   2  -5  -5   39.11    4.49
  -2   5   5   35.58    4.04
  -2  -5   5   35.81    5.27
   2   5  -5   50.20    6.01
  -2   5   5   40.09    4.09
  -2   5   5   49.33    5.72
  -2  -5   5   44.08    5.06
  -2   5   5   42.07    3.11
  -2  -5   5   39.50    5.50
   2   5  -3 1248.43   32.59
  -2  -5   3 1293.86   32.64
  -2   5   3 1279.55   30.00
   2  -5  -3 1329.05   30.46
  -2  -5   3 1314.39   28.76
  -2  -5   3 1271.80   33.18
   2   5  -3 1323.17   33.55
  -2  -5   3 1281.58   32.74
  -2   5   3 1363.07   33.10
   2   5  -3 1262.07   32.36
  -2  -5   3 1264.35   32.07
   2   5  -3 1320.41   32.99
  -2  -5   3 1295.92   33.40
  -2   5   3 1274.73   32.41
  -2  -5   3 1186.65   30.98
  -2   5   3 1407.60   37.25
   2  -5  -3 1245.95   36.20
  -2   5   3 1261.82   30.04
   2  -5  -3 1276.81   30.16
   2  -5  -3 1334.90   33.23
   2  -5  -3 1308.59   28.53
   2   5  -3 1274.62   28.35
  -2  -5   3 1333.05   29.70
  -2   5   3 1313.14   29.57
  -2  -5   1 1016.64   24.76
  -2   5   1 1015.07   24.52
   2  -5  -1 1126.65   29.29
  -2  -5   1 1099.60   31.20
  -2   5   1 1058.05   28.65
   2   5  -1 1066.11   31.12
  -2  -5   1 1079.99   30.07
   2   5  -1 1086.99   29.71
  -2   5   1 1072.22   25.71
   2   5  -1 1070.93   28.33
   2   5  -1 1015.28   25.40
  -2  -5   1 1033.21   27.77
  -2   5   1 1073.73   22.74
   2  -5  -1 1010.61   24.83
   2   5  -1 1017.00   28.45
  -2  -5   1 1005.52   27.25
   2   5  -1 1034.79   27.68
  -2   5   1 1051.41   27.52
   2  -5  -1 1114.26   28.38
   2   5  -1 1038.81   27.87
  -2   5   1 1030.32   28.60
   2  -5  -1 1063.71   32.26
   2  -5  -1 1081.82   29.11
  -2  -5   1 1044.95   24.75
  -2   5   1 1025.23   24.50
  -2   5  -1    2.30    2.11
   2   5   1   15.07    4.03
   2  -5   1    1.63    2.75
  -2  -5  -1    4.76    3.06
   2   5   1    2.28    2.22
   2  -5   1    8.54    3.28
  -2   5  -1    1.67    2.72
  -2  -5  -1    4.85    3.34
  -2   5  -1    2.55    3.22
   2  -5   1    5.48    3.08
   2   5   1    8.59    4.06
   2   5   1    6.10    2.92
   2  -5   1    5.66    4.03
  -2  -5  -1   -0.20    3.24
  -2  -5  -1    3.34    2.94
   2  -5   1    7.12    1.85
   2  -5   1    5.80    3.13
  -2  -5  -1    1.23    2.28
  -2   5  -1    3.62    2.47
   2   5   1    3.04    2.54
  -2   5  -1    5.62    1.92
   2  -5   1    2.00    1.78
   2   5   1    4.48    2.74
  -2   5  -1    6.28    3.38
  -2  -5  -1    2.53    2.40
   2  -5   1    4.95    3.70
  -2   5  -1   -0.10    1.94
   2  -5   1    9.83    2.21
   2   5   3  525.62   23.11
   2  -5   3  559.07   23.66
  -2  -5  -3  562.93   23.78
  -2   5  -3  573.63   23.88
  -2   5  -3  555.32   23.10
  -2   5  -3  568.42   26.33
   2   5   3  582.73   21.92
  -2  -5  -3  584.28   22.84
   2   5   3  571.46   20.44
   2  -5   3  601.49   15.01
   2   5   3  597.89   18.58
  -2  -5  -3  558.13   17.80
  -2   5  -3  568.33   17.45
  -2   5  -3  560.69   23.71
   2  -5   3  555.68   23.62
   2   5   5  249.76   17.80
   2  -5   5  259.49   18.10
  -2   5  -5  288.63   20.81
  -2   5  -5  237.29   15.76
  -2  -5  -5  218.25   16.26
   2   5   5  217.48   13.31
  -2  -5  -5  223.56   17.00
  -2   5  -5  237.32   17.54
   2   5   5  218.88   13.09
   2  -5   5  250.76    8.51
  -2  -5  -5  237.29   10.89
  -2  -5  -5  235.48   10.27
  -2   5  -5  249.32   16.46
   2  -5   5  228.72   17.56
  -2  -5  -7   25.00    5.13
  -2   5  -7   13.69    5.64
  -2   5  -7   12.57    7.02
  -2  -5  -7   16.12    6.60
  -2   5  -7   27.36    7.53
  -2  -5  -7    7.07    6.00
   2   5   7   20.93    5.05
   2  -5   7   20.25    8.10
  -2   5  -7   29.11    6.89
   2   5   7   23.93    7.81
   2  -5   7   30.60    8.58
  -2   5  -9   68.49   14.69
  -2  -5  -9   55.18   11.37
  -2   5  -9   56.03    9.21
   2  -5   9   84.41   14.04
   2   5   9   42.09   11.41
  -2   5  -9   44.71   11.08
  -2  -5  -9   58.33   12.19
  -2  -6  14  558.16   37.30
  -2   6  14  560.84   30.79
   2  -6 -14  551.42   38.20
   2   6 -14  560.36   40.19
  -2   6  14  574.77   37.12
  -2  -6  14  556.73   35.77
   2  -6 -14  596.80   38.76
   2   6 -14  654.04   39.78
  -2  -6  12  827.19   41.58
   2  -6 -12  779.68   41.90
   2   6 -12  888.79   45.26
  -2   6  12  850.18   36.36
  -2   6  12  833.74   40.29
  -2  -6  12  821.92   39.73
   2  -6 -12  792.77   40.21
   2   6 -12  831.25   41.12
  -2  -6  10 1708.97   55.55
  -2  -6  10 1618.04   39.46
  -2   6  10 1598.22   51.54
   2  -6 -10 1606.08   56.68
  -2  -6  10 1563.57   40.64
   2   6 -10 1604.16   56.66
  -2   6  10 1547.48   50.91
  -2   6  10 1619.34   40.75
  -2   6  10 1703.41   53.51
  -2  -6  10 1512.55   50.71
   2   6 -10 1618.69   53.68
   2  -6 -10 1524.51   52.33
   2   6  -8 3035.34   72.37
   2  -6  -8 2967.89   71.70
  -2   6   8 2981.27   66.04
   2  -6  -8 2938.28   59.88
   2   6  -8 2926.14   75.57
   2  -6  -8 2941.29   76.99
  -2  -6   8 3014.06   73.73
  -2   6   8 2970.03   64.02
  -2  -6   8 2845.62   62.51
  -2  -6   8 2893.45   70.00
  -2   6   8 2965.55   70.87
  -2  -6   8 2886.98   68.22
  -2   6   8 2832.84   68.70
  -2   6   6 1851.37   45.05
  -2  -6   6 1852.90   44.63
   2  -6  -6 1805.47   45.49
   2  -6  -6 1763.14   35.89
  -2   6   6 1877.44   44.07
  -2  -6   6 1812.69   44.94
  -2  -6   6 1848.82   47.48
   2   6  -6 1778.72   48.20
   2  -6  -6 1767.98   42.33
  -2  -6   6 1704.01   45.26
  -2   6   6 1860.04   41.66
  -2   6   6 1729.19   43.59
   2   6  -6 1841.46   47.94
  -2  -6   6 1886.95   43.76
  -2   6   6 1738.69   42.39
  -2  -6   6 1774.91   45.36
  -2   6   6 1857.14   44.98
  -2  -6   6 1837.87   44.96
   2   6  -6 1793.84   44.61
   2  -6  -6 1789.80   44.62
  -2   6   4 1580.77   35.30
  -2  -6   4 1558.00   35.34
   2  -6  -4 1614.60   35.59
  -2  -6   4 1601.62   39.51
   2   6  -4 1489.80   38.05
  -2   6   4 1565.13   35.07
  -2  -6   4 1614.71   39.80
   2  -6  -4 1552.61   38.95
  -2  -6   4 1640.54   37.84
  -2  -6   4 1632.86   40.42
  -2   6   4 1633.80   41.27
  -2  -6   4 1596.32   39.81
   2   6  -4 1631.06   41.78
  -2   6   4 1601.44   39.57
   2   6  -4 1607.68   39.95
  -2   6   4 1629.08   30.38
   2   6  -4 1515.74   38.98
  -2  -6   4 1566.84   39.99
  -2  -6   4 1603.54   39.23
   2  -6  -4 1555.62   35.01
  -2   6   4 1643.49   45.53
  -2   6   4 1576.94   34.71
   2  -6  -4 1589.57   40.26
  -2  -6   4 1598.83   41.05
  -2  -6   4 1639.35   36.04
   2  -6  -4 1599.74   35.44
  -2   6   4 1584.09   35.78
   2   6  -4 1595.29   35.43
   2  -6  -2 2438.45   52.35
   2   6  -2 2538.67   55.79
  -2   6   2 2426.77   52.23
  -2  -6   2 2451.41   55.17
  -2  -6   2 2466.46   55.08
  -2   6   2 2418.48   51.87
   2   6  -2 2500.24   54.06
  -2   6   2 2434.38   46.45
  -2  -6   2 2372.32   46.79
  -2  -6   2 2417.83   52.94
  -2  -6   2 2433.24   53.09
   2   6  -2 2455.17   53.92
   2   6  -2 2259.55   52.19
  -2   6   2 2422.79   53.00
  -2  -6   2 2385.26   52.79
   2  -6  -2 2455.77   53.58
   2  -6  -2 2361.94   58.01
   2  -6  -2 2471.91   52.69
  -2   6   2 2440.05   58.87
  -2  -6   2 2359.73   52.43
   2   6  -2 2409.41   52.42
  -2   6   2 2379.17   52.09
   2   6  -2 2315.63   47.26
   2  -6  -2 2357.12   47.37
   2   6   0 2360.75   50.23
  -2   6   0 2474.41   49.63
   2  -6   0 2292.32   49.84
  -2  -6   0 2375.03   49.70
  -2  -6   0 2306.88   49.74
  -2   6   0 2446.63   49.77
   2  -6   0 2510.54   55.97
   2  -6   0 2434.47   57.28
  -2  -6   0 2331.65   58.27
  -2   6   0 2372.73   54.91
   2   6   0 2447.89   58.64
  -2  -6   0 2391.92   55.98
   2   6   0 2446.11   55.42
  -2   6   0 2399.87   49.26
   2   6   0 2387.72   53.32
  -2   6   0 2385.11   49.18
   2  -6   0 2551.06   49.99
  -2  -6   0 2277.88   52.88
  -2  -6   0 2438.11   52.53
  -2   6   0 2400.49   51.96
   2   6   0 2399.24   52.85
  -2   6   0 2358.87   55.12
   2  -6   0 2471.76   53.00
   2  -6   0 2429.50   55.73
   2  -6   0 2259.34   59.88
   2  -6   0 2392.79   48.81
   2   6   2 3626.41   77.98
   2  -6   2 3576.73   77.82
  -2  -6  -2 3786.45   78.34
  -2   6  -2 3791.61   78.20
   2  -6   2 3692.22   78.60
  -2   6  -2 3621.70   77.91
   2   6   2 3792.38   78.82
  -2  -6  -2 3700.56   78.47
  -2   6  -2 3751.38   80.91
  -2  -6  -2 3672.04   81.20
   2   6   2 3724.26   78.64
  -2  -6  -2 3713.70   76.72
  -2  -6  -2 3599.65   78.07
   2  -6   2 3846.76   69.38
  -2   6  -2 3730.56   79.05
   2   6   2 3560.78   76.15
  -2   6  -2 3687.21   71.05
   2   6   2 3647.32   74.25
  -2   6  -2 3747.65   73.44
  -2  -6  -2 3694.48   73.73
   2  -6   2 3736.09   74.32
  -2   6  -2 3810.89   81.89
   2  -6   2 3584.55   77.95
   2  -6   2 3774.55   68.35
   2   6   4 1275.69   41.14
   2  -6   4 1225.39   40.32
  -2   6  -4 1201.24   40.29
  -2  -6  -4 1263.94   41.09
  -2   6  -4 1213.53   39.35
  -2   6  -4 1202.64   43.93
   2   6   4 1248.13   36.70
  -2  -6  -4 1308.80   40.23
   2   6   4 1297.35   36.61
   2  -6   4 1244.01   27.78
   2   6   4 1270.52   32.17
  -2   6  -4 1291.95   31.48
  -2  -6  -4 1227.60   31.74
  -2   6  -4 1189.28   39.84
   2  -6   4 1197.27   40.40
   2   6   6  419.04   25.24
   2  -6   6  402.38   24.65
  -2   6  -6  450.12   28.31
  -2   6  -6  414.77   22.65
  -2  -6  -6  403.40   23.94
  -2  -6  -6  446.29   26.14
  -2   6  -6  407.65   24.98
   2   6   6  393.96   19.49
  -2  -6  -6  394.55   13.83
  -2   6  -6  411.09   23.38
   2  -6   6  404.37   25.33
   2   6   8  848.69   41.60
   2  -6   8  809.95   40.46
  -2   6  -8  866.55   35.78
  -2   6  -8  832.46   44.20
  -2  -6  -8  853.46   40.63
  -2   6  -8  796.83   40.38
  -2  -6  -8  771.81   40.23
   2   6   8  833.61   31.28
  -2   6  -8  828.87   36.37
   2  -6   8  808.57   40.68
  -2   6 -10  662.24   43.79
  -2  -6 -10  669.26   40.28
  -2   6 -10  675.64   41.32
  -2  -6 -10  645.62   40.45
   2   6  10  687.16   41.59
   2  -6  10  690.54   41.56
   2   7 -13   -2.02    7.80
   2  -7 -13    9.42    7.13
  -2   7  13   21.97    7.26
  -2  -7  13    1.40    6.88
   2   7 -13   -4.27    6.92
   2  -7 -13    3.20    7.09
  -2  -7  13   10.26    7.34
  -2   7  13    4.22    7.06
  -2  -7  11  237.05   20.29
   2  -7 -11  203.97   20.29
  -2  -7  11  211.22   13.08
   2   7 -11  251.93   23.23
  -2   7  11  239.64   18.56
  -2   7  11  228.41   13.13
  -2  -7  11  197.71   17.69
  -2   7  11  209.29   18.45
   2  -7 -11  221.04   19.52
   2   7 -11  213.62   19.23
   2  -7  -9   14.60    5.26
   2   7  -9    6.03    4.25
  -2  -7   9   17.44    4.57
   2   7  -9   13.42    6.21
   2  -7  -9    8.83    5.14
   2  -7  -9   16.30    3.70
  -2   7   9   26.89    7.50
  -2  -7   9   17.53    6.45
  -2  -7   9   14.60    3.80
  -2   7   9   16.32    4.25
  -2   7   9    9.00    4.25
  -2  -7   9   14.20    6.11
   2  -7  -7  242.39   14.62
   2   7  -7  226.43   14.41
  -2   7   7  256.50   14.44
   2   7  -7  248.20   16.96
   2  -7  -7  235.88   15.20
   2  -7  -7  237.37    8.72
   2  -7  -7  261.84   18.46
   2  -7  -7  246.02   12.51
  -2  -7   7  226.08   15.67
   2  -7  -7  257.22   13.73
  -2   7   7  183.46   15.27
  -2  -7   7  219.89   12.54
  -2   7   7  225.14   13.10
  -2  -7   7  236.11   14.28
  -2  -7   7  218.40   13.66
  -2   7   7  217.30   14.01
  -2   7   5  353.99   14.57
  -2  -7   5  367.95   14.66
   2  -7  -5  379.61   17.62
   2  -7  -5  373.64   13.54
   2   7  -5  364.87   17.68
  -2  -7   5  367.24   17.04
  -2  -7   5  379.91   17.40
  -2  -7   5  402.61   17.40
   2  -7  -5  362.91   12.91
  -2  -7   5  346.40   16.69
   2   7  -5  405.31   19.17
  -2   7   5  366.24   18.12
  -2  -7   5  357.39   17.22
  -2   7   5  371.24   16.87
  -2  -7   5  384.73   16.67
   2   7  -5  372.14   17.30
  -2   7   5  364.92   12.08
   2  -7  -5  344.59   16.70
   2  -7  -5  347.60   14.51
  -2   7   5  356.17   14.64
  -2  -7   5  380.88   14.95
   2   7  -5  380.22   14.93
   2  -7  -3   89.97    5.36
   2   7  -3   75.78    4.98
  -2   7   3   70.42    5.42
  -2  -7   3   85.65    5.82
  -2  -7   3   79.58    7.33
  -2  -7   3   68.50    5.97
   2  -7  -3   83.58    6.82
  -2   7   3   76.17    6.90
  -2  -7   3   78.73    8.11
  -2  -7   3   96.60    8.76
   2   7  -3   73.65    7.70
  -2   7   3   93.71    8.14
  -2  -7   3   78.14    7.43
  -2  -7   3   75.96    7.02
   2   7  -3   77.95    7.04
  -2  -7   3   82.81    7.50
   2   7  -3   79.11    7.78
  -2   7   3   73.16    6.54
   2  -7  -3   86.81    8.11
   2  -7  -3   75.07    6.41
  -2   7   3   72.24    7.44
   2  -7  -3   78.20    9.20
  -2  -7   3   70.58    6.95
  -2   7   3   89.43    9.65
  -2   7   1  227.56    9.06
  -2  -7   1  221.20    9.43
  -2   7   1  235.05    9.23
  -2  -7   1  224.02    9.27
  -2  -7   1  246.00   14.69
  -2   7   1  226.69   12.81
   2   7  -1  222.97   13.98
   2  -7  -1  247.16   13.36
  -2  -7   1  227.34   13.47
   2   7  -1  229.09   12.95
  -2  -7   1  237.65   12.83
   2   7  -1  245.56   10.02
   2  -7  -1  248.91   12.34
  -2   7   1  223.93   11.36
   2  -7  -1  242.99    9.83
  -2  -7   1  228.59   12.50
  -2   7   1  230.85   12.52
   2   7  -1  239.88   13.18
   2   7  -1  243.64   12.73
   2  -7  -1  228.32    8.53
  -2   7   1  246.24   13.44
   2  -7  -1  229.64   12.62
   2  -7  -1  221.14   15.29
   2  -7  -1  234.42   13.14
   2   7  -1  227.24   12.97
   2  -7  -1  235.79    8.07
  -2   7  -1   30.46    4.43
   2   7   1   18.71    3.56
   2  -7   1   24.03    4.15
  -2  -7  -1   29.40    4.39
  -2   7  -1   27.40    5.32
  -2  -7  -1   30.22    4.40
  -2  -7  -1   34.52    6.44
  -2   7  -1   31.97    4.30
   2  -7   1   22.42    4.04
   2  -7   1   24.90    3.66
   2   7   1   31.82    5.33
  -2   7  -1   20.08    4.12
  -2   7  -1   15.98    4.70
  -2  -7  -1   32.27    4.72
   2   7   1   23.51    4.44
   2  -7   1   33.18    4.71
  -2  -7  -1   30.64    4.46
  -2   7  -1   31.64    4.48
   2   7   1   18.68    3.99
   2  -7   1   29.22    4.86
   2  -7   3  371.62   18.74
   2   7   3  370.05   18.94
  -2  -7  -3  362.96   18.70
  -2   7  -3  395.47   19.16
  -2   7  -3  372.99   19.69
  -2  -7  -3  346.04   19.54
  -2  -7  -3  353.11   17.86
   2   7   3  374.82   17.94
   2  -7   3  391.18   13.56
   2   7   3  364.85   16.27
  -2  -7  -3  353.43   15.64
  -2   7  -3  361.25   15.59
  -2   7  -3  331.53   19.38
   2  -7   3  370.28   15.83
   2  -7   3  359.98   11.50
   2  -7   3  354.29   18.60
  -2   7  -5  135.86   13.55
  -2  -7  -5  108.72   12.59
  -2   7  -5  101.37   11.80
  -2   7  -5  142.43   15.44
  -2  -7  -5  139.48   13.03
   2  -7   5  125.66    7.04
   2  -7   5  128.46   13.50
   2   7   5  115.42   10.73
  -2   7  -5  117.79    8.33
  -2   7  -5  125.32   12.94
  -2  -7  -5  102.39    8.39
   2   7   5  128.36   12.93
   2  -7   5  142.45   13.78
  -2   7  -7   26.25    6.43
  -2  -7  -7   37.40    9.03
  -2   7  -7   52.02   11.44
  -2  -7  -7   27.40    8.51
  -2   7  -7   27.73    8.04
   2  -7   7   29.16    8.25
   2   7   7   33.17    6.56
  -2   7  -7   34.93    8.22
   2   7   7   10.29    5.75
   2  -7   7   31.27    9.11
  -2   7  -9   72.06   14.54
  -2  -7  -9   74.05   13.77
  -2   7  -9   62.68   10.46
   2   7   9   97.36   15.15
   2  -7   9  106.64   16.33
  -2  -7  -9   67.71   13.03
  -2   7  -9   78.39   13.81
   2  -8 -14  749.01   44.99
  -2  -8  14  708.72   42.85
  -2   8  14  604.44   33.99
  -2   8  14  645.88   39.66
  -2  -8  14  728.34   41.30
   2  -8 -14  693.29   41.85
   2  -8 -12 1874.42   65.40
   2   8 -12 2013.61   67.46
   2   8 -12 1892.49   71.07
   2  -8 -12 1939.10   69.62
  -2   8  12 1800.10   60.46
  -2  -8  12 1715.50   61.51
  -2   8  12 1962.16   65.33
  -2  -8  12 1763.69   65.35
   2  -8 -10 1651.24   55.27
   2   8 -10 1700.19   56.19
   2   8 -10 1783.35   61.71
  -2  -8  10 1726.96   47.20
   2  -8 -10 1737.84   60.72
   2  -8 -10 1735.64   43.89
  -2   8  10 1745.06   54.84
  -2   8  10 1733.94   46.29
  -2   8  10 1732.46   55.21
  -2  -8  10 1670.73   53.99
  -2  -8  10 1718.67   57.57
  -2  -8  10 1792.70   45.55
   2  -8  -8 2933.05   71.12
   2   8  -8 2918.63   71.53
   2   8  -8 2913.23   77.31
   2  -8  -8 2995.89   54.26
   2  -8  -8 2766.35   77.20
   2  -8  -8 2874.16   63.99
  -2   8   8 2823.71   66.08
  -2  -8   8 2877.74   69.72
  -2  -8   8 2750.62   68.84
  -2   8   8 2924.54   70.53
  -2  -8   8 2752.85   72.99
  -2   8   8 2976.59   73.56
  -2   8   6 4385.27   87.35
  -2  -8   6 4354.83   86.60
   2  -8  -6 4289.26   81.14
   2  -8  -6 4141.92   91.76
   2   8  -6 4107.53   93.70
  -2   8   6 4402.28   94.31
   2  -8  -6 4385.47   83.94
  -2   8   6 4278.70   89.47
   2   8  -6 4300.21   92.03
  -2  -8   6 4171.44   89.43
  -2   8   6 4338.46   87.29
  -2  -8   6 4350.72   87.33
  -2   8   4 3180.30   60.42
  -2  -8   4 3086.64   60.05
   2  -8  -4 3062.57   69.75
  -2  -8   4 3119.77   70.09
  -2   8   4 3112.52   64.51
   2  -8  -4 3188.44   64.83
  -2  -8   4 3244.90   66.65
  -2  -8   4 3124.59   70.66
   2   8  -4 3151.09   70.77
   2  -8  -4 3176.52   55.65
  -2   8   4 3165.45   70.30
  -2   8   4 3056.37   68.59
   2   8  -4 3176.18   69.88
  -2  -8   4 3116.85   68.33
   2   8  -4 3141.09   67.32
  -2  -8   4 2850.46   70.38
  -2   8   4 3073.48   63.38
   2  -8  -4 3026.69   63.54
   2   8  -4 3128.34   60.27
   2  -8  -4 2976.62   60.21
  -2   8   4 3056.23   61.79
  -2  -8   4 3087.02   61.49
  -2  -8   2 3466.27   77.24
   2  -8  -2 3591.85   73.93
  -2   8   2 3333.36   72.80
  -2  -8   2 3475.80   76.77
   2   8  -2 3532.19   75.32
  -2   8   2 3509.07   73.08
   2  -8  -2 3485.40   74.14
  -2  -8   2 3450.86   73.42
   2   8  -2 3448.63   74.88
  -2   8   2 3555.38   74.61
   2   8  -2 3380.24   71.82
   2  -8  -2 3611.51   74.05
   2   8  -2 3534.51   75.50
   2  -8  -2 3375.13   81.07
  -2   8   2 3506.60   73.49
  -2  -8   2 3422.56   75.26
   2  -8  -2 3498.16   63.71
  -2  -8   2 3469.13   63.23
  -2   8   2 3414.41   62.51
   2   8  -2 3464.46   63.50
   2   8   0 3939.12   74.51
   2  -8   0 3760.35   73.75
  -2   8   0 3900.00   73.21
  -2  -8   0 3842.37   73.47
  -2   8   0 3903.76   73.23
  -2  -8   0 3824.69   73.58
  -2   8   0 3925.90   83.11
  -2  -8   0 3790.34   86.50
  -2  -8   0 3907.52   84.44
   2   8   0 3896.36   82.09
   2  -8   0 4054.73   78.22
  -2   8   0 3875.28   77.50
   2   8   0 3689.58   79.61
   2   8   0 3897.10   81.38
  -2   8   0 3885.68   80.29
   2  -8   0 3739.84   74.07
  -2   8   0 3860.07   83.41
   2  -8   0 3736.04   90.15
   2   8   0 3888.12   85.26
   2  -8   0 3695.55   72.91
  -2  -8  -2 1435.14   39.17
   2  -8   2 1458.65   39.35
  -2   8  -2 1418.77   38.88
   2   8   2 1431.63   39.32
   2   8   2 1492.98   39.85
   2  -8   2 1462.73   39.50
  -2   8  -2 1460.28   39.43
  -2  -8  -2 1458.53   39.47
  -2   8  -2 1505.24   43.94
  -2  -8  -2 1433.54   43.51
   2  -8   2 1404.89   40.19
  -2  -8  -2 1490.10   39.95
  -2   8  -2 1401.85   36.44
   2   8   2 1469.59   41.54
   2  -8   2 1473.52   35.73
  -2   8  -2 1453.29   38.82
   2   8   2 1475.46   39.89
   2  -8   2 1450.20   39.31
  -2   8  -2 1490.82   44.75
   2  -8   2 1498.07   40.04
   2  -8   4 1414.54   44.26
   2   8   4 1409.72   44.29
  -2  -8  -4 1433.21   44.66
  -2   8  -4 1421.79   44.30
  -2   8  -4 1414.89   45.51
  -2  -8  -4 1476.53   46.85
  -2  -8  -4 1394.11   43.44
   2  -8   4 1451.65   34.18
   2   8   4 1415.03   42.37
   2   8   4 1491.70   39.47
  -2   8  -4 1431.50   38.03
  -2   8  -4 1463.92   47.05
   2  -8   4 1424.91   38.35
   2  -8   4 1432.38   28.62
   2  -8   4 1450.79   45.40
   2  -8   4 1371.15   28.77
   2   8   6 1041.74   42.16
   2  -8   6 1049.64   41.75
  -2   8  -6 1132.46   41.49
  -2   8  -6  997.77   45.66
  -2  -8  -6 1103.27   41.86
  -2  -8  -6 1010.84   41.44
  -2   8  -6 1081.09   42.28
   2   8   6  988.29   36.33
  -2   8  -6 1037.17   41.49
   2  -8   6 1101.61   43.24
  -2   8  -8  402.35   25.12
  -2   8  -8  363.01   29.61
  -2  -8  -8  425.06   28.22
  -2  -8  -8  422.78   29.05
  -2   8  -8  349.55   26.11
   2   8   8  377.80   21.85
   2  -8   8  403.15   28.47
   2  -8   8  364.66   26.56
   2   8   8  373.28   27.23
  -2  -8 -10  420.72   32.41
  -2   8 -10  422.29   32.67
  -2  -8 -10  428.81   32.04
   2  -8  10  438.22   32.84
   2   8  10  433.24   33.11
  -2  -9  13   80.70   14.73
  -2   9  13   63.56   11.11
   2  -9 -13   68.29   13.45
   2  -9 -13   92.96   15.82
   2   9 -13   64.62   15.44
  -2   9  13   74.32   13.22
  -2  -9  13   56.79   12.83
   2  -9 -11  107.91   15.52
   2   9 -11  121.70   16.46
  -2  -9  11   91.02   10.11
   2  -9 -11   69.61   11.44
   2   9 -11   86.61   12.72
  -2  -9  11   78.11   12.84
  -2   9  11   95.02   12.84
  -2   9  11   76.58    8.95
  -2  -9  11   87.21   12.74
  -2   9  11   69.12   11.12
  -2  -9   9    0.44    3.63
   2  -9  -9    0.48    2.90
   2  -9  -9    0.87    5.38
   2   9  -9   -2.64    5.66
   2  -9  -9   -2.37    4.87
  -2   9   9    8.70    7.11
  -2  -9   9    4.35    5.02
  -2   9   9   -4.64    3.38
  -2  -9   9   -3.74    5.16
  -2   9   9    0.57    3.96
  -2   9   7   36.66    6.08
  -2  -9   7   37.68    5.86
   2  -9  -7   34.35    7.37
   2  -9  -7   38.47    4.45
   2   9  -7   45.32    8.68
   2  -9  -7   44.23    6.70
  -2   9   7   35.51    7.22
  -2  -9   7   36.74    6.99
   2  -9  -7   36.37    5.72
  -2   9   7   25.11    5.97
  -2  -9   7   44.09    6.84
  -2  -9   5  400.22   15.29
  -2   9   5  406.11   15.40
  -2  -9   5  426.88   20.75
   2  -9  -5  420.21   20.77
   2  -9  -5  391.77   16.07
  -2  -9   5  398.27   18.80
   2  -9  -5  413.83   13.55
  -2   9   5  387.55   19.94
   2   9  -5  407.73   20.92
  -2   9   5  376.22   18.83
  -2   9   5  403.24   11.91
   2   9  -5  393.93   18.80
   2   9  -5  395.28   19.41
  -2  -9   5  425.76   22.65
   2  -9  -5  423.21   15.68
  -2   9   5  402.73   15.77
  -2  -9   5  391.58   15.52
   2   9  -5  412.01   15.70
   2  -9  -5  406.67   15.48
   2   9  -3   52.28    3.84
   2  -9  -3   59.89    4.13
  -2   9   3   65.21    4.10
  -2  -9   3   49.68    3.80
  -2   9   3   65.67    6.99
   2  -9  -3   71.58    7.26
   2  -9  -3   61.76    8.15
  -2  -9   3   62.42    8.09
  -2  -9   3   69.00    8.58
  -2  -9   3   57.86    6.71
  -2   9   3   64.35    7.85
   2   9  -3   46.21    7.19
   2   9  -3   61.96    6.92
  -2  -9   3   58.39    6.96
  -2   9   3   55.86    6.47
   2  -9  -3   52.50    6.23
  -2   9   3   75.58    8.64
   2   9  -3   54.78    7.29
   2  -9  -3   70.02    9.82
  -2  -9   3   56.86    7.35
  -2   9   1   70.07    4.51
  -2  -9   1   76.88    4.98
  -2  -9   1   73.45    4.95
  -2   9   1   74.77    4.69
  -2   9   1   62.77    7.54
  -2  -9   1   88.84    9.95
  -2  -9   1   74.13    8.96
   2   9  -1   75.27    8.18
   2  -9  -1   84.52    8.28
  -2   9   1   76.69    7.58
   2  -9  -1   72.97    4.76
   2   9  -1   67.21    7.20
  -2   9   1   72.44    7.85
   2   9  -1   55.75    7.58
  -2   9   1   70.20    8.09
   2  -9  -1   64.84   10.12
   2   9  -1   66.82    8.17
   2  -9  -1   75.11    4.50
  -2   9  -1  366.32   15.08
   2   9   1  368.15   15.77
   2  -9   1  360.44   15.42
  -2  -9  -1  361.49   15.24
  -2   9  -1  358.25   15.12
  -2  -9  -1  367.46   15.47
  -2   9  -1  344.95   19.06
  -2  -9  -1  385.75   22.49
  -2  -9  -1  349.71   19.51
   2   9   1  376.27   19.12
   2  -9   1  397.71   16.61
  -2   9  -1  354.33   16.21
  -2   9  -1  389.39   18.07
   2   9   1  364.98   18.32
   2  -9   1  359.13   15.75
   2  -9   1  379.23   23.72
  -2   9  -1  372.67   20.14
   2  -9   1  381.23   15.81
  -2  -9  -3   71.06    8.17
  -2   9  -3   79.32    8.73
  -2   9  -3   68.46    9.10
  -2  -9  -3   64.53    8.13
  -2  -9  -3   74.18    9.71
  -2   9  -3   82.58    8.14
   2  -9   3   77.31    6.91
   2  -9   3   75.30    8.86
   2   9   3   63.52    8.40
   2   9   3   71.57    8.09
  -2   9  -3   77.22   10.47
  -2   9  -3   83.34    8.43
   2   9   3   68.91    8.22
   2  -9   3   69.60    8.11
  -2  -9  -5  107.34   12.40
  -2   9  -5  119.95   12.71
  -2   9  -5  123.70   13.14
  -2  -9  -5   98.85   11.37
  -2  -9  -5   97.55   12.33
   2  -9   5  108.86   12.33
   2   9   5  131.12   12.35
  -2   9  -5  114.23    9.66
   2   9   5  121.15   10.07
  -2   9  -5  126.76   13.97
   2   9   5  137.28   13.48
   2  -9   5  118.04   12.79
  -2  -9  -7   96.92   13.20
  -2   9  -7   88.99   12.42
   2  -9   7   93.86   13.30
   2   9   7   56.50    8.84
   2  -9   7   64.25   11.04
   2   9   7   82.12   12.44
  -2  -9  -7   75.88   12.28
  -2   9  -7   62.94   10.78
  -2  -9  -9   -0.86    6.93
  -2   9  -9    8.68    6.49
   2  -9   9   16.32    9.31
  -2  -9  -9   10.25    6.18
  -2   9  -9   18.56    8.55
   2   9   9   14.71    8.73
   2  -9   9   26.94    9.62
  -2 -10  14  592.14   37.27
  -2  10  14  641.47   39.28
  -2  10  14  623.81   35.42
   2  10 -12 1383.11   60.83
   2 -10 -12 1272.95   56.32
  -2  10  12 1323.18   51.22
  -2  10  12 1396.84   53.61
  -2 -10  12 1217.87   50.34
  -2 -10  12 1295.36   54.62
   2  10 -10 1024.96   46.15
  -2 -10  10  945.41   35.34
   2 -10 -10  960.72   44.11
  -2  10  10  912.46   39.38
  -2  10  10  967.57   34.10
  -2  10  10  973.81   39.08
  -2 -10  10  887.71   36.97
  -2 -10  10  921.02   40.81
   2  10  -8  671.71   33.27
   2 -10  -8  722.67   35.03
   2 -10  -8  706.69   27.27
  -2  10   8  714.97   32.08
  -2 -10   8  648.66   30.43
  -2  10   8  707.15   28.31
  -2 -10   8  679.42   28.20
  -2  10   8  727.59   28.48
  -2 -10   8  721.65   28.29
  -2  10   6 3019.94   64.77
  -2 -10   6 2780.84   63.56
   2 -10  -6 2983.89   74.11
  -2 -10   6 3045.18   73.85
   2 -10  -6 2963.94   63.13
   2 -10  -6 2970.44   61.27
   2  10  -6 2949.91   74.60
  -2  10   6 2939.30   73.52
  -2  10   6 3014.33   58.82
   2  10  -6 3016.82   71.35
  -2  10   6 2893.96   70.21
   2  10  -6 3004.17   71.21
   2 -10  -6 2965.78   60.67
  -2 -10   6 2867.35   79.14
  -2  10   6 2952.96   64.43
  -2 -10   6 2971.14   64.47
  -2 -10   6 2870.41   63.57
  -2  10   6 2995.83   64.41
  -2 -10   4 1620.44   35.60
  -2  10   4 1743.29   36.16
   2 -10  -4 1750.03   49.63
  -2 -10   4 1660.15   48.81
  -2  10   4 1633.89   43.29
  -2 -10   4 1671.74   48.93
  -2 -10   4 1726.06   44.72
   2  10  -4 1687.07   48.37
  -2  10   4 1690.05   47.65
   2 -10  -4 1731.05   31.71
   2  10  -4 1707.18   48.11
  -2  10   4 1688.53   47.06
  -2 -10   4 1714.77   46.46
   2  10  -4 1622.24   43.59
   2 -10  -4 1641.07   42.52
  -2 -10   4 1631.78   49.70
  -2  10   4 1684.24   37.82
   2 -10  -4 1672.10   35.93
  -2 -10   4 1612.21   37.28
   2  10  -4 1690.09   36.07
  -2  10   2 2716.65   48.39
  -2 -10   2 2745.48   49.43
  -2 -10   2 2593.78   67.67
  -2  10   2 2679.83   64.06
  -2 -10   2 2706.92   67.93
   2  10  -2 2800.23   66.84
  -2  10   2 2687.64   63.90
  -2  10   2 2726.63   65.38
   2  10  -2 2864.06   67.03
  -2 -10   2 2741.82   62.17
   2  10  -2 2628.97   60.64
   2 -10  -2 2629.64   72.50
  -2 -10   2 2776.62   68.14
  -2  10   2 2707.38   64.46
  -2 -10   2 2760.26   49.36
  -2  10   2 2707.60   48.29
   2  10  -2 2736.12   48.92
   2 -10  -2 2747.85   49.03
  -2 -10   0 3158.30   61.02
  -2  10   0 3182.99   60.71
  -2  10   0 3215.10   60.80
  -2 -10   0 3121.61   61.12
  -2  10   0 3041.37   73.36
  -2 -10   0 3186.65   78.62
  -2 -10   0 3222.32   76.18
   2  10   0 3143.47   73.85
  -2  10   0 3127.91   69.54
   2  10   0 3058.04   62.15
   2 -10   0 3100.84   61.82
   2  10   0 2999.04   70.03
  -2  10   0 3099.39   71.96
   2 -10   0 3116.49   62.84
   2  10   0 3039.80   72.55
   2 -10   0 3096.91   81.92
  -2  10   0 3154.47   74.70
   2 -10   0 3045.20   61.52
  -2 -10  -2  747.83   25.83
   2  10   2  793.38   26.73
   2 -10   2  724.53   25.56
  -2 -10  -2  772.04   26.13
  -2  10  -2  787.74   26.02
  -2  10  -2  772.77   31.53
  -2 -10  -2  799.95   32.25
  -2 -10  -2  846.11   28.93
  -2  10  -2  755.01   26.57
   2  10   2  796.01   30.82
   2 -10   2  798.17   26.16
  -2  10  -2  771.16   28.26
   2  10   2  754.34   28.93
  -2  10  -2  766.74   32.19
   2 -10   2  708.33   36.39
   2 -10   2  742.47   26.58
   2 -10   4 1604.13   48.18
   2  10   4 1700.59   49.46
  -2 -10  -4 1626.91   48.59
  -2  10  -4 1643.96   48.67
  -2  10  -4 1550.00   51.29
  -2 -10  -4 1642.97   52.37
  -2 -10  -4 1586.29   48.51
   2  10   4 1559.30   48.83
   2 -10   4 1627.94   41.08
  -2  10  -4 1649.79   45.74
   2  10   4 1625.69   46.30
  -2  10  -4 1678.97   54.48
   2 -10   4 1616.30   49.27
   2  10   6 2216.98   65.74
   2 -10   6 2111.29   64.52
  -2 -10  -6 2152.30   65.14
  -2  10  -6 2123.82   64.82
  -2  10  -6 2113.86   65.47
  -2 -10  -6 2178.59   64.82
   2  10   6 2115.10   61.76
   2  10   6 2170.13   55.23
  -2  10  -6 2241.57   68.66
   2 -10   6 2227.52   67.04
  -2  10  -8  482.51   29.16
  -2 -10  -8  473.08   30.14
   2 -10   8  472.53   31.34
   2  10   8  451.22   26.22
  -2  10  -8  467.51   30.67
  -2 -10  -8  424.25   29.28
   2 -10   8  451.70   29.99
   2  10   8  461.97   30.36
   2 -10  10  448.79   33.42
  -2 -10 -10  455.72   32.77
  -2 -10 -10  452.56   33.98
  -2  11  13    8.49    7.26
  -2 -11  13    9.38    8.29
   2  11 -13   -6.27    9.32
   2 -11 -13   10.67    7.74
  -2  11  13    3.09    6.06
  -2 -11  13   16.61    8.09
  -2  11  11   -0.09    5.87
  -2 -11  11    4.51    5.79
   2  11 -11   -1.31    7.02
   2 -11 -11   22.34   10.64
  -2 -11  11    8.99    5.58
  -2  11  11    4.47    3.99
  -2  11  11    6.48    6.34
  -2 -11  11    5.44    5.23
  -2 -11   9    3.72    3.94
   2  11  -9    4.07    7.84
  -2 -11   9    9.13    4.90
   2 -11  -9    3.12    3.80
   2 -11  -9    4.05    6.20
  -2  11   9    3.43    5.09
  -2 -11   9   13.85    6.46
  -2  11   9    8.71    4.46
  -2 -11   9    1.11    3.97
  -2  11   9    3.66    4.68
  -2  11   7    2.99    3.72
  -2 -11   7   -0.84    3.56
   2 -11  -7    6.23    2.92
   2 -11  -7   -0.73    4.15
   2 -11  -7    5.87    4.40
  -2  11   7   -6.77    5.73
   2 -11  -7    4.12    2.94
  -2 -11   7   -2.91    4.50
  -2  11   7   -0.54    2.50
  -2  11   7    4.50    4.52
  -2 -11   7    5.91    4.02
  -2 -11   7   -7.33    6.43
  -2  11   5   81.60    6.89
  -2 -11   5   70.78    6.47
  -2  11   5   63.90    5.80
  -2 -11   5   58.49    5.50
  -2  11   5   58.42    5.37
  -2 -11   5   60.88    5.57
  -2 -11   5   66.67    9.40
   2 -11  -5   60.24    9.16
  -2 -11   5   72.96    9.59
   2  11  -5   61.04    9.03
  -2  11   5   53.01    8.70
   2 -11  -5   67.51    4.83
   2  11  -5   61.40    8.05
  -2  11   5   62.18    3.27
  -2  11   5   64.01    3.70
  -2  11   5   57.50    8.33
   2  11  -5   77.76   10.00
   2 -11  -5   61.69    6.72
  -2 -11   5   55.59    8.60
  -2 -11   3    2.31    1.28
  -2  11   3    3.03    1.13
  -2  11   3    2.23    1.03
  -2  11   3    2.55    0.96
  -2 -11   3    2.00    1.25
  -2 -11   3    0.65    4.35
  -2  11   3   -0.35    3.71
   2 -11  -3    1.41    4.38
  -2 -11   3   -0.43    5.23
  -2 -11   3   -0.35    2.56
  -2  11   3    3.83    3.99
   2  11  -3    4.05    4.45
   2  11  -3    1.18    2.67
  -2 -11   3    1.50    2.50
   2  11  -3   -0.43    3.95
  -2  11   3    3.37    4.01
  -2 -11   3   -0.17    4.22
   2 -11  -3   -3.87    4.84
   2 -11  -1  213.76    8.03
   2  11  -1  212.97    8.05
  -2 -11   1  220.26    7.77
  -2 -11   1  238.28    8.04
  -2  11   1  238.72    7.42
  -2  11   1  216.72   15.04
  -2 -11   1  209.64   16.82
  -2 -11   1  224.72   16.33
   2  11  -1  238.98   16.32
  -2  11   1  230.43   14.67
   2  11  -1  207.23   12.95
  -2  11   1  204.26   14.64
   2 -11  -1  210.81    9.03
   2  11  -1  226.65   15.65
  -2  11   1  221.98   15.38
   2 -11  -1  212.53   18.18
   2 -11  -1  235.50    8.42
   2  11   1  152.30    9.64
   2 -11   1  172.92   10.02
   2 -11   1  150.88    9.26
   2  11   1  159.81    9.73
  -2 -11  -1  157.61    9.51
  -2  11  -1  164.66    9.46
  -2  11  -1  160.56   13.87
  -2 -11  -1  161.86   15.86
  -2 -11  -1  170.99   15.07
   2  11   1  160.17   13.89
  -2  11  -1  167.07   12.17
   2 -11   1  160.28   10.73
   2  11   1  168.29   13.08
  -2  11  -1  150.04   12.66
   2  11   1  194.36   14.52
  -2  11  -1  182.88   15.10
   2 -11   1  150.81    9.82
   2 -11   1  146.00   16.37
   2  11   3   31.99    6.22
   2 -11   3   41.16    7.15
  -2  11  -3   37.74    8.38
  -2 -11  -3   49.74    7.76
  -2 -11  -3   50.57    8.70
  -2 -11  -3   31.73    6.00
  -2  11  -3   30.20    5.54
  -2  11  -3   59.63    7.76
   2 -11   3   48.98    7.22
   2  11   3   42.08    8.33
  -2  11  -3   42.52    6.93
  -2  11  -3   47.49    8.79
   2  11   3   51.60    8.07
   2 -11   3   39.67    9.80
  -2  11  -5    6.25    5.58
  -2 -11  -5    1.46    4.84
  -2 -11  -5    0.37    4.29
  -2 -11  -5    0.07    5.12
  -2  11  -5   13.81    5.95
   2 -11   5    0.02    4.86
   2  11   5    3.42    5.16
  -2  11  -5   17.11    7.91
  -2  11  -5    5.57    3.41
   2  11   5    7.46    4.17
   2  11   5    3.14    4.17
   2 -11   5    8.96    5.71
  -2 -11  -7   44.07    9.60
  -2  11  -7   70.20   12.37
   2 -11   7   63.56   11.53
   2  11   7   37.05    8.75
   2  11   7   40.29    9.43
   2 -11   7   48.16   10.86
  -2 -11  -7   43.30    9.61
  -2  11  -7   82.28   12.69
  -2 -11  -9   52.25   12.23
  -2  11  -9   29.14    8.60
   2 -11   9   48.97   12.32
  -2  11  -9   48.02   11.69
  -2 -11  -9   44.58   10.33
   2  11   9   48.01   11.56
   2 -11   9   66.59   13.00
  -2 -12  14  145.60   18.80
  -2  12  14  129.28   17.94
  -2  12  14  126.27   17.48
   2  12 -12  599.20   40.32
   2 -12 -12  534.42   36.32
  -2  12  12  547.19   32.78
  -2 -12  12  512.37   33.91
  -2  12  12  574.37   33.04
  -2 -12  12  475.76   29.95
  -2 -12  10  340.78   22.08
   2 -12 -10  267.51   23.80
  -2  12  10  310.32   22.67
  -2  12  10  296.77   19.65
  -2 -12  10  302.51   23.04
  -2  12  10  301.90   20.96
  -2 -12  10  303.48   20.59
  -2  12   8  406.78   20.55
  -2 -12   8  373.62   19.86
   2 -12  -8  423.41   26.81
   2 -12  -8  383.38   26.85
  -2 -12   8  386.63   23.42
   2 -12  -8  380.37   21.45
  -2 -12   8  380.65   23.05
  -2  12   8  363.11   23.50
  -2  12   8  371.24   21.78
  -2 -12   8  336.65   27.42
  -2 -12   8  424.75   22.72
  -2  12   6 1157.84   32.13
  -2 -12   6 1103.11   31.59
  -2 -12   6 1114.30   42.06
   2 -12  -6 1127.48   43.07
  -2 -12   6 1164.04   42.43
   2 -12  -6 1186.31   30.06
  -2  12   6 1179.19   42.34
   2  12  -6 1129.54   42.88
  -2  12   6 1149.25   40.13
   2  12  -6 1181.76   41.44
  -2  12   6 1175.00   26.58
   2 -12  -6 1165.36   33.02
  -2 -12   6 1092.72   45.47
  -2 -12   6 1186.70   33.16
  -2 -12   6 1143.00   31.74
  -2  12   6 1145.18   32.93
  -2  12   6 1170.81   32.35
  -2  12   4 1078.04   22.84
  -2 -12   4  991.09   22.70
  -2 -12   4  983.07   38.23
   2 -12  -4  977.60   38.26
  -2 -12   4 1028.79   38.88
   2  12  -4 1063.93   38.39
  -2  12   4  976.80   36.62
  -2  12   4  994.15   36.44
   2  12  -4  978.70   32.22
   2  12  -4  883.28   36.03
  -2 -12   4 1007.76   39.61
  -2 -12   4 1030.06   22.78
  -2  12   4 1001.27   22.36
  -2 -12   2  702.21   31.21
   2  12  -2  743.15   30.57
  -2  12   2  662.91   28.02
  -2  12   2  652.53   28.61
   2  12  -2  720.04   30.01
   2  12  -2  687.49   24.63
  -2 -12   2  633.12   29.89
   2 -12  -2  628.34   33.07
  -2 -12   2  662.43   31.05
   2 -12  -2  640.00   30.32
  -2  12   2  675.05   27.97
   2  12   0 1559.21   33.94
   2 -12   0 1637.10   34.03
  -2 -12   0 1548.29   34.13
  -2  12   0 1658.09   33.72
  -2  12   0 1743.29   50.99
  -2 -12   0 1523.26   52.67
  -2 -12   0 1640.19   51.86
   2  12   0 1637.11   49.83
  -2  12   0 1634.03   46.72
   2  12   0 1630.42   49.24
   2  12   0 1593.90   44.61
   2 -12   0 1597.36   38.34
  -2  12   0 1600.49   48.37
  -2  12   0 1620.66   50.42
   2 -12   0 1499.53   56.04
   2 -12   0 1576.63   36.47
   2 -12   2  490.74   19.36
   2 -12   2  463.84   19.49
   2  12   2  471.28   19.93
   2  12   2  493.57   19.82
  -2 -12  -2  474.12   19.41
  -2  12  -2  488.43   19.44
  -2 -12  -2  468.64   28.80
  -2  12  -2  492.89   26.30
  -2 -12  -2  507.96   23.22
  -2 -12  -2  503.67   26.98
  -2  12  -2  482.80   22.56
   2  12   2  482.47   25.58
   2  12   2  496.15   24.82
   2  12   2  458.99   22.98
  -2  12  -2  506.46   24.56
  -2  12  -2  529.52   27.87
   2 -12   2  465.83   31.24
   2 -12   2  508.42   21.21
   2 -12   4 1452.21   45.07
   2  12   4 1586.13   46.75
  -2 -12  -4 1514.25   46.18
  -2  12  -4 1527.02   46.10
  -2  12  -4 1522.68   52.81
  -2 -12  -4 1511.48   52.68
  -2 -12  -4 1467.63   47.59
   2  12   4 1490.36   50.04
  -2  12  -4 1479.27   46.06
   2  12   4 1486.83   47.12
  -2  12  -4 1465.54   46.18
   2 -12   4 1540.15   63.47
  -2  12  -4 1522.10   54.14
   2 -12   4 1449.09   46.92
  -2 -12  -6 1136.41   44.36
  -2  12  -6 1196.61   44.89
  -2  12  -6 1258.71   49.39
  -2 -12  -6 1182.76   45.40
  -2 -12  -6 1111.31   47.15
   2  12   6 1114.69   44.24
   2  12   6 1170.92   40.20
   2  12   6 1179.67   45.14
   2 -12   6 1197.85   44.87
   2 -12   6 1226.64   47.17
  -2  12  -8  367.94   27.24
  -2 -12  -8  362.32   26.76
  -2 -12  -8  408.24   28.26
  -2  12  -8  385.45   27.75
   2  12   8  345.86   24.77
   2 -12   8  366.73   28.15
   2  12   8  373.97   27.25
   2 -12   8  325.85   25.48
  -2 -13  13    3.27    7.19
  -2  13  13    2.49    6.47
   2 -13 -13   -4.11    7.37
  -2  13  11   -3.94    6.48
  -2 -13  11   -5.61    6.48
  -2  13  11    1.49    5.18
  -2 -13  11   -3.06    5.47
  -2 -13  11    5.17    6.59
   2 -13 -11    0.27    7.45
   2 -13  -9   -2.22    7.15
   2 -13  -9    6.67    4.54
  -2 -13   9    2.71    5.25
  -2 -13   9  -10.74    9.27
  -2 -13   9   -2.14    4.44
  -2  13   9   11.82    6.99
  -2 -13   9    0.85    4.62
  -2  13   9    0.49    4.75
  -2  13   9   -2.10    5.45
  -2 -13   9   -3.25    3.70
  -2 -13   7    0.33    3.10
  -2  13   7   -1.78    2.75
  -2 -13   7    0.56    5.46
   2 -13  -7   -6.59    5.26
  -2 -13   7    1.15    4.85
   2 -13  -7   -5.80    4.61
  -2 -13   7    6.54    5.63
  -2  13   7   12.37    6.60
   2  13  -7    2.52    5.71
  -2  13   7    5.20    5.03
  -2 -13   7   -7.40    6.51
  -2 -13   5   26.33    3.51
  -2  13   5   35.68    4.06
  -2  13   5   26.90    3.39
  -2 -13   5   19.38    3.05
  -2  13   5   22.61    3.80
  -2 -13   5   24.59    3.84
   2 -13  -5   29.85    7.98
  -2 -13   5   16.21    7.17
  -2 -13   5   41.68    9.07
  -2  13   5   38.50    8.17
   2  13  -5   26.39    7.68
   2 -13  -5   22.46    2.76
   2  13  -5   31.24    6.32
  -2  13   5   33.19    6.92
   2  13  -5   10.82    5.31
  -2 -13   5   25.23    7.29
  -2 -13   3    3.09    5.59
   2 -13  -3   12.14    6.07
  -2 -13   3    2.82    4.43
   2  13  -3    4.79    4.22
  -2  13   3   13.52    5.94
   2  13  -3    5.24    3.65
  -2 -13   3    3.35    3.38
   2  13  -3    8.02    5.77
  -2  13   3   18.15    6.40
   2 -13  -3    6.99    5.18
  -2 -13   3    1.32    5.57
  -2  13   1   29.09    7.49
  -2 -13   1   36.37    9.56
  -2 -13   1   36.07    8.45
   2  13  -1   35.25    8.01
   2 -13  -1   43.88    3.58
  -2  13   1   31.97    7.08
   2  13  -1   36.42    6.14
   2 -13  -1   34.44    3.74
  -2  13   1   37.85    8.14
   2  13  -1   36.76    7.93
   2 -13  -1   29.12    9.92
   2 -13   1   11.52    2.93
   2  13   1   17.93    3.71
  -2 -13  -1    7.62    2.45
   2 -13   1   14.98    3.13
  -2  13  -1   15.08    3.16
  -2 -13  -1   16.54    7.04
  -2  13  -1   15.60    6.21
  -2 -13  -1    6.19    5.08
   2 -13   1    8.14    2.78
  -2  13  -1   20.19    6.19
   2  13   1   16.23    6.51
   2  13   1    4.88    3.70
   2 -13   1   12.82    3.78
  -2  13  -1   16.67    6.23
   2  13   1    7.18    4.77
   2 -13   1   25.63    9.78
   2  13   3   60.29    7.66
   2 -13   3   53.14    6.96
  -2 -13  -3   65.01    8.08
  -2  13  -3   55.22    7.38
  -2  13  -3   54.96    9.99
  -2 -13  -3   54.17    8.70
  -2 -13  -3   58.02   10.04
  -2  13  -3   55.79    8.74
   2 -13   3   55.09    8.12
   2  13   3   49.56    9.40
   2  13   3   65.94    9.69
   2  13   3   49.77    8.55
  -2  13  -3   59.53    9.26
   2 -13   3   53.30   12.96
   2  13   5    9.01    4.70
   2 -13   5   11.87    6.01
  -2  13  -5   10.28    7.06
  -2 -13  -5   14.67    6.43
  -2 -13  -5    9.28    6.12
  -2 -13  -5   20.78    6.67
  -2  13  -5    8.21    4.99
   2 -13   5   20.49    6.66
   2  13   5    9.76    6.60
  -2  13  -5   23.10    6.51
   2  13   5   13.04    5.36
   2 -13   5   11.35   10.06
  -2 -13  -7   23.28    8.35
  -2  13  -7   36.33   10.85
   2 -13   7    4.52    5.91
   2  13   7   25.17    8.14
   2 -13   7   16.33    7.74
   2  13   7   12.80    6.96
  -2  13  -7   11.53    6.40
  -2 -13  -7   24.16    7.03
  -2  13  -9   36.26   10.53
   2 -13   9   18.30    8.54
  -2  14  12  498.69   33.25
   2 -14 -12  433.35   33.68
  -2 -14  12  517.21   34.30
  -2 -14  10  412.96   27.88
   2 -14 -10  404.75   30.43
  -2 -14  10  406.77   26.42
  -2  14  10  350.35   26.46
  -2  14  10  387.80   24.23
  -2 -14  10  375.68   33.44
  -2 -14  10  378.01   26.72
  -2 -14   8  567.80   24.04
  -2 -14   8  575.26   31.79
   2 -14  -8  582.37   34.13
  -2 -14   8  583.96   31.38
   2 -14  -8  541.56   28.84
  -2 -14   8  602.47   30.39
  -2  14   8  555.99   31.50
  -2  14   8  586.75   29.95
  -2 -14   8  556.57   36.91
  -2 -14   8  622.11   30.02
  -2 -14   6 1654.56   56.27
   2 -14  -6 1598.23   56.90
  -2 -14   6 1576.11   54.94
  -2  14   6 1585.16   54.40
   2  14  -6 1633.74   56.27
   2  14  -6 1605.22   53.71
  -2  14   6 1627.12   53.32
  -2 -14   6 1559.47   59.52
  -2 -14   6 1578.18   38.47
  -2  14   6 1663.67   39.17
  -2 -14   4  276.48   20.70
   2  14  -4  241.37   18.92
  -2  14   4  229.49   17.98
  -2  14   4  260.23   19.03
   2  14  -4  248.65   19.08
   2  14  -4  249.20   15.36
  -2 -14   4  243.84   20.13
   2 -14  -4  232.99   19.78
  -2 -14   4  235.55   19.79
  -2 -14   2  937.46   39.65
  -2  14   2  960.88   37.14
   2  14  -2  977.14   39.02
   2  14  -2  868.54   36.98
  -2  14   2  934.06   37.69
   2  14  -2  957.98   30.61
   2 -14  -2  925.24   44.02
  -2 -14   2  914.88   40.36
  -2  14   2  912.98   36.34
   2 -14  -2  869.32   39.01
  -2  14   0 2309.21   66.78
  -2 -14   0 2272.49   71.53
  -2 -14   0 2388.60   70.19
   2  14   0 2445.54   68.15
  -2  14   0 2279.36   63.21
  -2  14   0 2236.99   64.79
   2  14   0 2310.01   66.27
   2  14   0 2231.32   57.47
   2 -14   0 2327.05   76.76
   2 -14   0 2336.43   48.75
  -2  14  -2  742.33   23.90
  -2 -14  -2  750.83   24.46
  -2 -14  -2  737.55   39.13
  -2  14  -2  824.66   37.11
  -2 -14  -2  819.88   37.66
  -2  14  -2  800.13   32.58
   2  14   2  873.04   37.63
   2  14   2  722.95   25.18
   2 -14   2  760.23   25.29
   2  14   2  796.17   34.76
   2  14   2  760.24   31.62
  -2  14  -2  797.93   34.42
   2 -14   2  727.99   42.02
   2 -14   2  780.46   27.66
   2 -14   4  811.89   31.01
  -2 -14  -4  767.01   30.45
  -2  14  -4  817.45   39.46
  -2 -14  -4  735.88   37.34
  -2 -14  -4  837.91   35.00
   2  14   4  844.56   38.38
  -2  14  -4  781.74   34.41
  -2  14  -4  820.49   35.05
   2  14   4  843.25   36.03
   2 -14   4  838.60   48.14
   2 -14   4  789.16   32.92
  -2  14  -6 1089.20   48.03
  -2 -14  -6 1029.64   46.65
  -2 -14  -6 1063.01   43.58
   2  14   6  980.71   39.95
   2 -14   6 1027.53   57.82
   2  14   6 1087.16   45.68
   2 -14   6 1037.87   43.34
   2  14   8  332.65   25.59
  -2  14  -8  322.47   26.95
   2 -14   8  338.74   26.91
  -2  15  11   33.62   10.63
  -2 -15  11   26.45    8.74
   2 -15 -11   23.06   10.22
  -2 -15  11   15.66    8.73
  -2 -15  11   12.20    9.77
  -2 -15   9   -4.60    6.46
  -2  15   9   -4.50    6.51
  -2 -15   9    2.37    5.31
  -2 -15   9   -4.73    6.83
   2 -15  -9    2.75    6.82
   2 -15  -9    7.15    5.47
  -2  15   9   -1.26    5.21
  -2 -15   9  -13.42   11.04
  -2 -15   7    8.21    7.10
   2 -15  -7   11.82    7.02
  -2 -15   7    4.82    5.93
   2 -15  -7    6.90    5.94
   2  15  -7   -4.65    7.75
  -2  15   7   10.31    5.95
  -2 -15   7   15.09    6.20
  -2  15   7    9.06    6.00
   2  15  -7   10.23    6.31
  -2 -15   7   12.45    9.44
   2 -15  -5   -2.82    6.79
  -2 -15   5   15.77    8.25
  -2 -15   5   19.19    8.66
  -2  15   5   11.45    6.60
   2  15  -5   15.18    6.46
   2  15  -5   17.27    6.10
   2  15  -5   15.83    6.06
  -2  15   5    9.39    6.33
  -2 -15   5    9.06    6.58
  -2 -15   3   89.08   13.09
   2 -15  -3   84.12   12.28
  -2 -15   3   85.48   12.20
   2  15  -3  102.16   13.10
  -2  15   3   69.63   10.53
   2  15  -3   72.86    8.30
  -2  15   3   98.18   12.76
   2  15  -3  106.98   14.02
  -2 -15   3   87.49   13.42
  -2 -15   1  267.28   21.41
  -2  15   1  285.22   19.79
   2  15  -1  274.14   20.60
  -2  15   1  263.03   19.99
   2  15  -1  256.30   14.78
   2  15  -1  239.59   19.44
   2 -15  -1  263.02   24.53
   2 -15  -1  265.52   21.95
  -2 -15   1  277.51   22.81
  -2  15   1  301.55   20.96
  -2  15  -1  246.32   20.06
  -2 -15  -1  214.25   21.09
  -2 -15  -1  184.72   18.08
  -2  15  -1  214.29   16.81
   2  15   1  192.38   17.88
   2  15   1  199.22   17.75
   2  15   1  191.56   14.31
  -2  15  -1  199.87   17.51
   2 -15   1  231.38   23.72
   2 -15   1  192.05   11.37
  -2  15  -3   -8.08    7.39
  -2 -15  -3    0.02    5.22
  -2 -15  -3    3.13    4.62
  -2  15  -3   -0.65    4.61
   2 -15   3    1.15    4.01
   2  15   3    3.14    5.94
   2  15   3    5.41    5.77
   2  15   3    1.61    5.21
  -2  15  -3    2.20    5.09
  -2  15  -5   12.13    8.34
   2  15   5   28.34    8.18
   2 -15   5   20.98    6.00
  -2 -15  -5   20.99    8.54
  -2 -15  -5   16.54    5.76
   2  15   5   22.58    7.95
  -2  15  -5   13.28    6.18
   2 -15   5   15.38    9.59
   2  15   7   81.67   14.72
  -2  15  -7   84.37   15.05
  -2 -16  12  939.85   47.85
  -2 -16  10  848.68   42.95
  -2 -16  10  781.46   40.21
   2 -16 -10  829.03   45.51
  -2  16  10  806.83   42.77
  -2  16  10  802.98   38.60
  -2 -16  10  734.49   49.00
  -2 -16  10  755.67   39.00
  -2 -16   8 1150.23   50.26
   2 -16  -8 1245.85   54.79
   2 -16  -8 1231.47   48.60
  -2 -16   8 1228.82   50.77
  -2 -16   8 1139.25   44.93
  -2  16   8 1135.95   49.54
  -2  16   8 1248.44   48.84
  -2 -16   8 1136.10   56.97
  -2 -16   8 1199.34   46.58
   2 -16  -6 1405.45   53.16
  -2 -16   6 1544.20   56.91
  -2  16   6 1434.83   54.15
  -2 -16   6 1460.82   47.67
   2  16  -6 1515.62   56.74
  -2  16   6 1469.01   53.49
   2  16  -6 1482.01   53.90
  -2 -16   6 1468.45   60.24
   2 -16  -6 1447.29   57.97
  -2 -16   6 1422.25   55.80
  -2 -16   4 1324.64   52.18
   2  16  -4 1320.13   50.42
  -2  16   4 1352.31   50.08
   2  16  -4 1317.30   50.60
   2  16  -4 1291.93   40.60
  -2  16   4 1367.68   50.08
  -2 -16   4 1272.20   52.90
   2 -16  -4 1310.87   52.89
  -2 -16   4 1296.80   52.40
  -2 -16   2 1573.05   57.93
   2  16  -2 1595.54   55.84
  -2  16   2 1651.23   54.72
  -2  16   2 1604.88   55.43
   2  16  -2 1582.43   44.07
   2  16  -2 1586.59   55.52
   2 -16  -2 1463.65   61.68
   2 -16  -2 1519.07   57.83
  -2 -16   2 1586.11   59.11
  -2 -16   0 1397.90   53.96
   2  16   0 1355.55   51.20
  -2  16   0 1334.48   47.85
   2  16   0 1383.86   50.86
  -2  16   0 1380.57   49.95
   2 -16   0 1217.97   56.89
  -2 -16   0 1344.65   55.38
  -2  16   0 1295.48   50.02
   2 -16   0 1350.53   54.69
  -2 -16  -2  490.93   30.87
   2  16   2  548.33   31.36
  -2  16  -2  549.25   28.82
   2  16   2  517.37   30.10
  -2  16  -2  519.62   29.47
   2 -16   2  453.07   35.03
  -2 -16  -2  527.85   35.10
  -2  16  -2  569.92   32.62
  -2 -16  -4  689.44   38.00
   2  16   4  618.55   35.26
   2 -16   4  563.64   41.92
  -2  16  -4  641.47   36.52
   2  16   4  589.69   32.35
  -2  16  -4  641.23   32.99
   2  16   6  490.08   32.03
   2 -16   6  394.53   37.86
  -2  16  -6  486.35   33.30
  -2 -17  11   55.16   12.22
   2 -17 -11   63.03   14.81
  -2 -17  11   57.47   13.39
  -2 -17  11   55.19   16.87
  -2 -17   9    4.37    6.51
  -2  17   9   -4.20    6.60
  -2 -17   9    6.52    6.18
  -2 -17   9    0.76    5.96
   2 -17  -9   -1.77    5.27
   2 -17  -9   12.07    8.39
  -2  17   9    2.49    6.37
  -2 -17   9   18.44    9.33
  -2 -17   7   16.96    8.20
   2 -17  -7   30.76    9.86
  -2 -17   7   25.07    7.02
   2  17  -7   20.54    8.60
  -2  17   7   19.71    9.20
  -2 -17   7   26.53   10.05
   2 -17  -7   17.99    7.62
  -2  17   7   12.38    6.99
  -2 -17   7   19.75   10.00
  -2 -17   5  146.31   18.06
   2 -17  -5  177.69   19.82
   2  17  -5  123.27   15.79
  -2  17   5  111.01   14.74
  -2 -17   5  114.81   15.82
  -2  17   5  120.37   15.30
   2  17  -5  139.68   16.72
  -2 -17   5  161.32   19.03
  -2 -17   3   80.23   13.66
   2 -17  -3   42.04   10.72
   2  17  -3   54.86   11.40
  -2  17   3   44.36   10.52
  -2 -17   3   69.61   12.56
   2  17  -3   51.11   11.23
  -2  17   3   28.58    8.76
  -2 -17   3   49.18   10.99
  -2 -17   1  123.44   16.64
   2 -17  -1  132.01   17.00
   2  17  -1  133.23   16.42
  -2  17   1  131.02   15.32
  -2 -17   1  112.55   15.29
  -2  17   1  114.74   14.40
   2  17  -1  153.49   16.72
   2 -17  -1  156.07   20.44
  -2  17  -1   29.19    8.36
  -2 -17  -1   21.22    9.83
   2 -17   1   13.20    8.35
  -2  17  -1   20.69    8.08
   2  17   1   18.11    8.11
  -2 -17  -1   24.06    8.70
  -2  17  -1   -0.78    5.95
   2  17   1   14.67    6.78
   2 -17   1   11.28    8.23
  -2  17  -3   31.57   11.33
  -2  17  -3   13.01    6.60
   2  17   3   10.43    6.49
  -2 -17  -3   12.10    7.63
   2  17   3    5.30    5.96
  -2  17  -3   22.32    7.91
   2 -17   3   -0.08    9.46
  -2  17  -5   40.77   11.79
  -2 -17  -5   16.59    8.61
   2  17   5   34.53   11.26
   2  17   5   12.09    7.34
  -2  17  -5   37.06    9.84
  -2 -18  10  278.34   25.35
   2 -18 -10  263.92   28.05
  -2  18  10  296.24   24.76
  -2 -18  10  285.18   26.39
  -2 -18  10  245.24   29.24
   2 -18  -8  551.68   34.22
  -2 -18   8  686.66   39.13
  -2  18   8  606.59   37.59
  -2  18   8  589.72   34.82
  -2 -18   8  581.59   41.74
  -2 -18   8  623.49   38.44
   2 -18  -8  652.27   41.25
  -2 -18   6  647.22   37.99
   2 -18  -6  614.49   35.83
  -2  18   6  646.90   37.04
   2  18  -6  681.71   38.67
   2  18  -6  678.86   37.38
  -2  18   6  647.20   36.03
  -2 -18   6  567.46   38.73
   2 -18  -6  629.51   38.94
  -2 -18   6  567.21   36.42
  -2 -18   4  561.10   35.06
   2  18  -4  593.26   34.59
  -2  18   4  574.88   33.53
   2  18  -4  663.62   36.23
  -2  18   4  650.44   35.62
  -2 -18   4  548.07   36.28
  -2 -18   4  621.50   37.28
   2 -18  -4  585.73   36.68
  -2 -18   2  742.18   40.55
   2  18  -2  750.94   39.02
  -2  18   2  741.62   37.45
   2  18  -2  765.55   39.54
  -2  18   2  804.47   39.65
   2 -18  -2  655.04   42.27
   2 -18  -2  784.65   42.29
  -2 -18   2  701.76   40.67
  -2 -18   0  477.32   32.22
  -2  18   0  486.49   29.34
   2  18   0  473.13   31.01
   2  18   0  447.62   29.77
  -2  18   0  443.19   29.19
   2 -18   0  428.38   35.30
  -2 -18   0  425.72   32.13
   2 -18   0  450.10   32.54
  -2 -18  -2  666.07   38.83
   2  18   2  599.74   36.15
  -2  18  -2  703.83   35.65
   2  18   2  686.33   37.32
  -2  18  -2  659.06   36.00
   2 -18   2  652.56   44.75
  -2 -18  -2  695.54   43.15
   2 -18   2  609.16   39.19
  -2 -18  -4  484.99   33.69
   2  18   4  445.44   31.75
   2  18   4  471.66   30.71
  -2  18  -4  414.64   28.75
   2 -18   4  491.80   41.47
  -2  18  -4  504.29   34.25
  -2 -19   9   -3.80    7.57
   2 -19  -9  -13.03   10.92
  -2 -19   9    7.67    7.94
  -2  19   9   23.30    9.70
  -2 -19   9   18.92   11.04
  -2 -19   7   14.15    8.54
   2 -19  -7   26.70   10.38
   2  19  -7   16.03    8.21
  -2  19   7   23.53   10.38
   2 -19  -7   20.12    8.80
  -2 -19   7   27.55   10.21
  -2  19   7   26.64    8.78
  -2 -19   7   22.91   10.82
   2 -19  -5    7.51    7.77
  -2 -19   5    1.31    6.91
   2  19  -5    8.15    6.85
  -2  19   5   17.39    8.58
   2 -19  -5    5.62    6.45
  -2 -19   5   17.72    8.65
   2  19  -5    7.65    6.31
  -2  19   5   11.66    8.16
  -2 -19   5   22.12   10.16
   2  19  -3   43.10   11.18
  -2  19   3   52.01   12.08
  -2 -19   3   29.87   10.78
   2  19  -3   42.29   10.85
  -2  19   3   39.12   10.49
  -2 -19   3   31.31   10.01
   2 -19  -3   49.86   12.93
   2 -19  -1  114.75   18.33
  -2 -19   1  108.50   17.35
   2  19  -1  113.64   16.19
  -2  19   1  123.62   16.23
  -2 -19   1   85.24   14.30
   2  19  -1   83.04   14.96
  -2  19   1  107.88   15.15
   2 -19  -1   92.03   16.31
   2 -19   1    0.61    7.48
  -2 -19  -1   -3.21    7.81
   2  19   1   11.70    8.86
  -2  19  -1   -2.68    5.79
  -2 -19  -1    9.80    8.00
  -2  19  -1   -6.35    7.04
   2  19   1    6.59    7.59
   2 -19   1   11.79   10.57
   2 -19   3    3.56    8.64
  -2  19  -3   35.58    9.67
   2  19   3   40.39   12.13
  -2  19  -3   59.65   12.22
   2  19   3   52.20   11.78
   2 -19   3   52.74   15.38
  -2 -19  -3   50.42   12.57
   2  19   5   18.10    8.57
  -2 -19  -5   45.11   12.69
   2 -20  -8  304.74   26.81
   2 -20  -8  316.87   31.25
  -2 -20   8  241.60   29.01
  -2 -20   6  192.55   22.76
   2 -20  -6  289.95   27.99
   2 -20  -6  222.15   23.21
  -2 -20   6  239.21   24.40
  -2  20   6  237.12   23.72
   2  20  -6  233.62   24.48
   2  20  -6  219.56   22.70
  -2  20   6  229.85   23.19
  -2 -20   6  254.50   27.54
   2 -20  -4  248.24   24.83
  -2 -20   4  301.63   27.75
  -2  20   4  241.33   23.68
   2  20  -4  272.20   25.22
   2  20  -4  262.46   24.97
  -2  20   4  268.05   24.52
  -2 -20   4  311.45   28.62
   2 -20  -4  226.23   24.90
  -2 -20   4  228.59   25.81
   2  20  -2  383.79   29.69
  -2  20   2  301.98   26.07
   2  20  -2  357.21   28.51
  -2  20   2  348.77   27.22
   2 -20  -2  288.59   27.85
  -2 -20   2  285.37   27.78
  -2 -20   2  269.55   26.36
  -2 -20   0  299.04   27.80
  -2  20   0  305.46   25.07
   2  20   0  248.44   24.12
  -2  20   0  254.49   23.88
   2  20   0  287.99   25.83
   2 -20   0  301.80   28.25
  -2 -20   0  243.02   26.06
   2 -20   0  278.03   30.12
  -2 -20  -2  500.05   35.89
  -2  20  -2  438.83   30.29
   2 -20   2  475.26   40.53
   2  20   2  474.24   33.19
  -2  20  -2  467.23   32.43
   2 -20   2  441.85   35.11
  -2 -20  -2  458.55   37.30
   2  20   4  292.37   26.45
  -2  20  -4  291.81   26.29
  -2 -20  -4  309.58   29.09
  -2 -21   7   19.57    9.97
   2  21  -7   12.68   10.40
   2 -21  -7   25.69   11.53
   2  21  -5    3.78    7.93
   2 -21  -5    0.90    7.34
   2 -21  -5   19.63   11.39
  -2 -21   5    1.25    8.97
   2  21  -3   29.23   10.46
  -2  21   3   14.55    8.49
  -2 -21   3   10.04    8.83
   2 -21  -3   14.50    8.43
  -2  21   3   20.71   10.35
   2  21  -3   33.80   11.54
  -2 -21   3    1.21    7.73
   2 -21  -3   23.66   11.10
   2  21  -1   43.02   12.51
  -2  21   1   29.23    9.45
  -2 -21   1   36.77   10.67
   2  21  -1   23.76   10.96
   2 -21  -1   21.46   12.26
  -2  21   1   53.16   13.70
  -2 -21   1   24.44   11.76
   2 -21  -1   41.51   12.92
  -2  21  -1   60.43   13.40
  -2 -22   6  145.62   22.42
  -2  22   0  241.60   23.79
  -3   0  15   -0.34    6.90
   3   0 -15   -4.15    7.55
   3   0 -15   10.04    8.36
  -3   0  15    4.30    7.83
  -3   0  13    5.46    6.70
   3   0 -13   -6.70    7.23
   3   0 -13   -0.02    7.72
  -3   0  13    8.20    6.21
   3   0 -11   -1.37    5.87
   3   0 -11   -0.94    5.35
  -3   0  11    0.77    5.17
  -3   0  11    1.72    2.25
  -3   0  11   -0.21    4.82
   3   0  -9    0.99    3.70
   3   0  -9   -2.08    4.25
  -3   0   9    0.22    1.28
   3   0  -9   -0.99    4.61
  -3   0   9    1.20    4.44
  -3   0   9    4.30    2.24
   3   0  -9    2.42    4.46
  -3   0   9   -0.17    3.08
  -3   0   7    4.88    1.66
  -3   0   7    1.42    3.18
   3   0  -7   -1.12    4.39
   3   0  -7    1.24    1.11
  -3   0   7    3.63    3.71
  -3   0   7   -2.18    2.76
  -3   0   7    3.78    3.46
   3   0  -7   -2.18    3.49
  -3   0   7    1.52    3.51
   3   0  -7    5.84    3.75
   3   0  -7   -1.02    3.04
  -3   0   7   -0.34    2.87
   3   0  -5    1.06    2.74
   3   0  -5   -0.09    2.82
  -3   0   5    1.05    2.41
   3   0  -5    4.34    4.42
  -3   0   5    3.09    3.61
  -3   0   5    7.40    3.06
   3   0  -5    2.04    2.96
   3   0  -3    2.87    3.17
   3   0  -3    1.61    3.15
  -3   0   3    3.52    4.30
   3   0  -3   -0.30    1.41
   3   0  -1   -1.18    1.99
  -3   0   1   -2.46    2.97
  -3   0   1   -0.06    1.16
  -3   0   1    0.74    2.66
   3   0  -1   -0.89    3.04
  -3   0   1    2.26    2.44
  -3   0  -1    5.69    3.72
   3   0   1    2.50    3.37
   3   0   1    2.78    2.88
  -3   0  -1    4.67    4.28
   3   0   1    1.85    0.96
  -3   0  -1   -1.04    3.12
  -3   0  -1    3.41    2.41
   3   0   1    4.08    3.42
   3   0   3   -5.46    4.61
  -3   0  -3   -3.27    3.53
  -3   0  -3    7.90    5.18
  -3   0  -3   -5.77    4.69
   3   0   3    0.50    1.22
  -3   0  -3    2.61    3.10
  -3   0  -3    1.81    1.91
   3   0   5   -0.19    5.01
  -3   0  -5   -1.50    3.49
  -3   0  -5    4.11    5.84
  -3   0  -5    7.67    6.26
   3   0   5    0.77    1.30
  -3   0  -5   -1.03    3.15
  -3   0  -5   -0.60    1.91
  -3   0  -7    0.25    5.88
  -3   0  -7    0.69    4.09
  -3   0  -7    2.58    7.67
  -3   0  -7    2.88    4.32
   3   0   7   -1.29    6.04
   3   0   9    1.03    7.14
  -3   0  -9   -1.06    7.09
  -3   0  -9   -3.99    9.13
   3  -1 -14 1205.82   53.18
   3   1 -14 1232.88   53.94
   3  -1 -14 1227.70   55.93
   3   1 -14 1213.46   55.82
  -3  -1  14 1123.32   51.19
  -3   1  14 1147.53   51.29
  -3   1  14 1180.67   51.32
  -3  -1  14 1161.06   50.80
  -3   1  12 2001.84   63.77
  -3  -1  12 2107.37   65.27
   3  -1 -12 2051.25   68.22
   3   1 -12 2048.07   67.83
   3  -1 -12 1994.35   64.92
   3   1 -12 1927.78   64.02
  -3   1  12 2018.77   45.01
  -3   1  12 2020.28   63.58
  -3  -1  12 1952.83   62.86
   3   1 -10 4291.63   96.66
   3  -1 -10 4094.26   95.70
  -3   1  10 4050.22   79.16
  -3  -1  10 4159.98   78.15
   3   1 -10 4199.62   99.68
   3  -1 -10 4194.29  100.16
   3   1 -10 4213.27   97.16
   3  -1 -10 4176.26   96.90
  -3  -1  10 4035.63   95.49
  -3  -1  10 4219.03   82.47
  -3   1  10 4141.85   77.37
   3   1 -10 4034.93   95.52
  -3  -1  10 4142.84   86.79
  -3   1  10 4142.89   95.22
  -3   1   8 2168.63   41.25
  -3   1   8 2254.64   39.11
  -3  -1   8 2177.48   43.83
   3   1  -8 2117.57   56.84
   3  -1  -8 2135.33   57.64
  -3   1   8 2171.78   54.27
  -3  -1   8 2164.44   55.26
   3  -1  -8 2314.13   56.60
   3   1  -8 2086.31   57.44
  -3   1   8 2111.51   52.39
  -3  -1   8 2161.46   53.08
   3   1  -8 2171.25   55.08
   3  -1  -8 2195.38   55.32
   3  -1  -6 8328.07  155.54
  -3  -1   6 8697.91  153.30
   3   1  -6 8405.79  144.95
   3   1  -6 8318.88  153.32
   3  -1  -6 8698.74  156.77
   3   1  -6 8250.91  159.66
  -3  -1   6 7851.40  156.90
  -3   1   6 8327.68  154.70
   3   1  -6 8405.11  152.73
  -3  -1   6 8502.33  152.49
  -3   1   6 8647.93  150.82
   3  -1  -6 8456.43  150.82
   3   1  -6 8242.52  152.69
  -3   1   6 8582.45  152.75
  -3  -1   6 8689.75  152.97
   3  -1  -6 8297.85  152.73
  -3  -1   6 8367.47  153.08
  -3   1   6 8442.37  153.03
  -3  -1   4 7792.68  146.46
   3  -1  -4 7900.60  144.43
   3   1  -4 7573.18  145.36
  -3   1   4 7863.37  143.87
   3   1  -4 7748.27  140.64
  -3   1   4 8200.22  138.39
  -3  -1   4 8490.14  141.14
   3  -1  -4 7880.91  137.83
   3   1  -4 8009.99  140.32
  -3   1   4 8116.66  136.38
  -3   1   4 8120.83  140.98
  -3  -1   4 8066.28  140.95
   3  -1  -4 7767.68  140.29
   3   1  -4 7755.56  140.28
   3   1  -2 2801.48   51.84
   3  -1  -2 2754.06   57.83
   3   1  -2 2818.15   58.23
  -3  -1   2 2823.13   54.20
  -3  -1   2 2902.34   58.05
  -3   1   2 2837.74   57.81
   3  -1  -2 2801.31   60.41
   3   1  -2 2728.83   57.92
  -3   1   2 2701.62   59.43
  -3  -1   2 2870.93   58.79
  -3  -1   0 5328.70  105.64
  -3   1   0 5458.90  105.85
  -3   1   0 5454.25  104.52
   3  -1   0 5512.38  104.64
   3   1   0 5584.96  102.35
  -3  -1   0 5395.05  101.60
   3   1   0 5485.87   94.91
  -3  -1   0 5355.98   94.20
  -3   1   0 5383.65  101.20
  -3   1   0 5556.17  105.26
  -3  -1   0 5360.29  100.47
   3  -1   0 5518.39  105.73
   3   1   0 5514.18  105.83
  -3  -1   0 5600.01  105.80
  -3   1   0 5564.65  105.60
   3  -1   2 2102.43   55.43
   3   1   2 2159.77   55.80
  -3  -1  -2 2141.56   55.60
  -3   1  -2 2122.78   55.40
  -3   1  -2 2140.09   52.91
  -3  -1  -2 2133.88   53.30
   3   1   2 2080.93   53.94
  -3   1  -2 2033.94   54.09
   3   1   2 2122.66   41.11
  -3  -1  -2 2127.99   39.56
  -3   1  -2 2128.53   51.50
  -3   1  -2 2137.18   39.31
  -3   1  -2 2113.46   43.78
  -3   1  -4  575.71   24.89
  -3  -1  -4  581.72   24.24
   3   1   4  590.95   26.76
  -3  -1  -4  602.73   28.15
  -3   1  -4  600.79   28.73
  -3   1  -4  566.43   28.34
  -3  -1  -4  568.78   28.36
   3   1   4  627.66   16.85
  -3  -1  -4  576.67   22.63
  -3   1  -4  583.64   23.98
   3   1   4  612.50   29.17
   3  -1   4  559.64   27.93
  -3  -1  -6 1737.60   48.96
  -3   1  -6 1691.31   49.67
  -3   1  -6 1765.68   59.98
  -3  -1  -6 1717.02   58.53
  -3  -1  -6 1762.46   47.09
  -3   1  -6 1723.76   49.26
   3  -1   6 1747.27   59.88
   3   1   6 1711.14   59.66
  -3   1  -6 1652.28   58.94
  -3  -1  -6 1630.12   58.69
  -3   1  -8  465.49   32.94
  -3  -1  -8  515.24   34.43
  -3  -1  -8  453.43   31.74
  -3   1  -8  468.96   32.62
   3  -1   8  521.69   34.30
   3   1   8  506.44   34.00
  -3   2  15   33.77   10.47
  -3  -2  15   12.85    7.68
   3  -2 -15   26.76   10.66
   3   2 -15   30.25   11.11
   3   2 -15   22.62   11.20
   3  -2 -15   33.31   12.42
  -3   2  15   21.86    8.19
  -3  -2  15   28.12   10.53
  -3  -2  13   75.63   13.05
  -3   2  13  130.27   16.23
   3   2 -13  117.61   15.50
   3  -2 -13  115.65   15.80
   3   2 -13  100.98   15.71
   3  -2 -13  117.17   16.30
  -3   2  13  116.38   15.28
  -3  -2  13   83.16   12.97
  -3   2  11   26.12    6.58
  -3  -2  11   30.22    7.85
   3  -2 -11   17.73    6.08
   3   2 -11   34.60    8.41
   3   2 -11   39.60    9.55
   3  -2 -11   26.55    7.84
  -3  -2  11   29.28    4.58
  -3   2  11   30.41    4.43
  -3   2  11   31.23    7.96
  -3  -2  11   45.41    9.54
  -3   2  11   25.33    4.84
  -3  -2  11   31.11    5.04
  -3  -2  11   22.83    4.00
   3   2 -11   23.49    5.87
   3   2  -9   -2.58    4.52
   3   2  -9   10.60    5.63
   3  -2  -9    8.55    5.08
   3  -2  -9    1.19    3.94
  -3  -2   9    8.55    2.59
  -3   2   9    7.48    2.12
   3   2  -9    2.77    4.08
   3  -2  -9   18.25    6.54
  -3  -2   9    0.53    3.97
  -3   2   9   13.49    5.38
  -3   2   9    7.37    1.71
  -3  -2   9    8.59    2.73
   3  -2  -9    9.86    3.92
   3   2  -9   10.59    4.75
  -3  -2   9    7.47    4.04
  -3  -2   7    5.48    2.14
  -3  -2   7    4.58    2.24
   3   2  -7    2.08    3.60
  -3  -2   7    0.03    3.19
   3  -2  -7    1.18    4.42
  -3   2   7    2.15    2.94
   3   2  -7   -0.13    4.02
  -3   2   7   -0.86    2.77
  -3  -2   7    0.25    2.44
  -3  -2   7    7.59    4.68
   3   2  -7   -1.71    3.89
  -3   2   7    6.12    3.60
   3  -2  -7   13.39    4.82
  -3  -2   7    6.11    3.78
   3   2  -7    9.18    4.29
  -3   2   7   -1.82    2.66
   3  -2  -7    5.51    3.67
  -3  -2   7    4.18    3.09
  -3   2   7    7.36    3.50
   3   2  -5 1575.63   31.69
  -3  -2   5 1595.59   32.03
  -3  -2   5 1615.46   35.72
   3   2  -5 1595.30   35.81
  -3  -2   5 1558.19   36.12
   3   2  -5 1528.62   35.58
   3   2  -5 1563.34   38.35
  -3   2   5 1554.40   34.92
   3  -2  -5 1561.37   34.90
  -3  -2   5 1657.30   38.90
  -3  -2   5 1500.83   42.56
   3  -2  -5 1595.67   40.09
   3   2  -5 1568.94   42.01
  -3   2   5 1511.05   39.19
   3  -2  -5 1559.13   37.54
   3   2  -5 1601.38   37.81
  -3   2   5 1628.82   38.03
  -3  -2   5 1639.32   38.18
   3   2  -3 2840.62   60.67
  -3   2   3 2840.62   58.50
  -3  -2   3 2862.67   58.66
  -3  -2   3 2819.10   58.08
  -3  -2   3 2833.40   59.70
   3  -2  -3 2812.85   55.56
   3   2  -3 2840.42   60.06
  -3   2   3 2957.52   58.00
   3  -2  -3 2907.39   57.54
  -3   2   3 2875.57   59.65
   3  -2  -3 2819.22   59.97
  -3  -2   3 2819.47   60.31
  -3  -2   1 1365.70   34.17
  -3   2   1 1373.53   34.40
   3  -2  -1 1268.13   33.89
   3   2  -1 1335.19   29.25
  -3  -2   1 1323.66   28.90
   3   2  -1 1380.49   38.19
   3   2  -1 1332.90   29.74
  -3  -2   1 1316.49   29.09
   3  -2  -1 1263.79   33.29
  -3   2   1 1374.71   31.66
  -3  -2   1 1334.32   33.89
   3  -2  -1 1389.07   34.41
   3   2  -1 1345.03   34.27
  -3   2   1 1309.27   33.74
   3   2   1  132.98   10.52
   3  -2   1  112.57    9.94
   3  -2   1  109.69    9.68
  -3  -2  -1  140.81   10.82
  -3   2  -1  118.99   10.16
  -3   2  -1  110.35    9.43
  -3   2  -1  111.23    9.83
   3  -2   1  122.73   10.23
   3   2   1  131.22   10.99
  -3  -2  -1  114.96    8.91
   3   2   1  105.69    8.63
   3   2   1  116.13    6.46
  -3  -2  -1  104.78    6.30
  -3  -2  -1  109.06    6.01
  -3   2  -1  107.70    5.90
  -3   2  -1  105.41    8.92
  -3   2  -1  127.17   10.07
  -3   2  -1  119.28    5.82
  -3  -2  -3  220.45   16.14
  -3   2  -3  275.92   17.78
  -3   2  -3  225.61   16.39
  -3   2  -3  228.43   14.41
  -3  -2  -3  232.51   15.46
   3   2   3  223.36   15.21
   3   2   3  240.52   10.11
  -3  -2  -3  230.48    7.14
  -3   2  -3  270.26   15.33
   3   2   3  251.98   17.00
   3  -2   3  245.02   16.83
  -3  -2  -5  218.41   14.66
  -3   2  -5  220.06   15.46
  -3  -2  -5  211.02   17.49
  -3   2  -5  219.47   18.56
  -3  -2  -5  189.24   17.45
  -3   2  -5  210.00   18.29
   3   2   5  230.09   10.66
  -3  -2  -5  238.64   13.77
  -3   2  -5  231.66   15.57
   3   2   5  244.78   19.43
   3  -2   5  210.08   18.11
  -3   2  -7   60.76   12.81
  -3  -2  -7   62.83   11.16
  -3   2  -7   70.73    9.63
  -3  -2  -7   64.60    8.53
   3  -2   7   58.82   12.21
   3   2   7   73.27   13.42
  -3   2  -7   50.81    8.29
  -3  -2  -7   70.44   12.66
  -3   2  -7   62.34   11.90
  -3   2  -9   -6.16    6.55
  -3  -2  -9    2.19    7.57
  -3   2  -9   -2.57    7.25
  -3  -2  -9   -2.76    7.51
   3   2   9   -0.72    7.75
   3  -2   9   -1.91    7.13
  -3   3  16  575.44   38.92
   3   3 -14  177.14   21.34
   3  -3 -14  130.38   18.17
  -3   3  14  113.41   16.02
  -3  -3  14  151.59   18.86
   3  -3 -14  106.37   16.06
   3   3 -14  109.78   15.29
  -3   3  14  140.51   17.90
  -3  -3  14  131.93   16.89
  -3   3  12 1264.57   47.72
  -3  -3  12 1254.54   48.85
   3   3 -12 1217.03   50.91
   3  -3 -12 1321.10   52.48
  -3   3  12 1230.50   32.80
  -3   3  12 1265.81   48.01
  -3  -3  12 1256.42   47.35
   3  -3 -12 1305.03   49.98
   3   3 -12 1302.24   49.64
   3   3 -10 1982.83   57.55
   3  -3 -10 1967.86   57.31
   3  -3 -10 1997.47   57.91
   3   3 -10 1987.18   58.13
  -3   3  10 2014.95   44.53
  -3  -3  10 1996.26   46.46
  -3  -3  10 1999.34   39.94
   3   3 -10 1889.69   59.41
   3  -3 -10 2004.87   61.52
  -3  -3  10 2037.27   58.69
  -3  -3  10 1922.33   45.57
  -3   3  10 1963.40   46.67
   3   3 -10 1919.34   53.14
  -3   3  10 1962.65   56.09
  -3  -3  10 1956.27   49.89
  -3   3   8  846.02   21.24
  -3  -3   8  852.55   24.19
   3  -3  -8  921.87   33.72
   3   3  -8  828.39   30.90
  -3  -3   8  875.36   22.59
  -3  -3   8  826.13   30.43
  -3   3   8  859.75   27.90
   3   3  -8  809.44   29.28
   3  -3  -8  842.06   29.82
  -3  -3   8  799.32   29.87
   3   3  -8  789.87   29.08
   3  -3  -8  840.74   29.97
  -3   3   8  822.17   28.34
  -3  -3   6 1279.52   34.03
  -3   3   6 1258.46   34.15
   3  -3  -6 1299.91   27.96
  -3  -3   6 1325.14   28.72
  -3   3   6 1261.82   25.75
   3   3  -6 1321.15   30.83
  -3  -3   6 1295.82   31.40
   3   3  -6 1263.99   33.93
  -3  -3   6 1293.72   33.36
  -3   3   6 1280.48   31.90
   3   3  -6 1288.11   35.58
  -3   3   6 1287.68   31.41
  -3  -3   6 1323.73   35.70
   3  -3  -6 1281.90   31.47
  -3   3   6 1338.42   36.08
   3   3  -6 1220.99   36.44
   3  -3  -6 1403.83   37.18
  -3  -3   6 1301.62   39.22
  -3   3   6 1285.88   34.35
  -3  -3   6 1314.66   34.80
   3   3  -6 1273.67   34.04
   3  -3  -6 1266.81   34.02
  -3  -3   4 3681.86   72.13
   3  -3  -4 3576.44   71.73
   3   3  -4 3511.40   71.52
  -3   3   4 3702.41   72.30
  -3   3   4 3658.71   69.07
   3   3  -4 3649.79   69.64
  -3  -3   4 3727.73   70.17
  -3  -3   4 3589.84   72.40
   3   3  -4 3647.71   72.36
   3   3  -4 3606.76   65.08
  -3  -3   4 3644.73   65.15
  -3  -3   4 3650.91   74.12
  -3   3   4 3635.64   67.47
   3  -3  -4 3590.90   66.88
  -3  -3   4 3642.40   74.23
   3   3  -4 3544.69   73.63
   3  -3  -4 3529.26   73.24
  -3   3   4 3726.34   73.61
  -3  -3   4 3670.12   75.09
  -3   3   4 3681.90   73.61
   3  -3  -4 3697.73   74.01
  -3  -3   2  510.49   17.40
  -3   3   2  513.84   17.42
  -3   3   2  529.52   18.70
   3   3  -2  529.70   20.61
   3   3  -2  540.41   20.18
  -3  -3   2  545.34   20.56
   3   3  -2  531.83   17.09
   3   3  -2  520.62   17.97
   3  -3  -2  512.46   17.82
  -3  -3   2  512.77   16.37
   3  -3  -2  499.21   18.98
   3  -3  -2  510.38   17.58
  -3   3   2  498.52   16.74
  -3   3   0 5319.03  102.27
   3  -3   0 5282.49  102.75
  -3  -3   0 5477.29  102.83
   3   3   0 5319.61  102.87
  -3  -3   0 5320.73  102.73
  -3   3   0 5332.33  102.63
  -3   3   0 5101.68  103.18
   3   3   0 5312.85  105.70
  -3  -3   0 5165.58   96.48
   3  -3   0 5314.11  104.59
   3   3   0 5320.09   98.00
   3   3   0 5395.09   96.21
  -3  -3   0 5201.01   95.51
  -3  -3   0 5203.41   95.54
  -3   3   0 5103.38   95.55
  -3   3   0 5234.31  102.73
   3  -3   0 5099.74   96.66
  -3   3   0 5208.94   92.68
  -3   3   0 5381.67  101.54
  -3  -3  -2 2319.43   58.60
  -3   3  -2 2254.97   58.30
  -3   3  -2 2309.48   59.95
  -3   3  -2 2292.81   56.77
   3   3   2 2362.81   57.88
  -3  -3  -2 2222.21   54.79
   3   3   2 2382.90   57.18
   3   3   2 2273.86   48.13
  -3   3  -2 2328.11   44.77
  -3  -3  -2 2225.39   45.21
  -3   3  -2 2365.07   56.69
   3   3   2 2291.47   58.57
   3  -3   2 2244.67   58.08
  -3   3  -4 1467.43   49.13
  -3   3  -4 1440.33   43.22
  -3  -3  -4 1418.42   45.49
  -3  -3  -4 1366.10   46.83
  -3   3  -4 1481.60   48.43
   3   3   4 1394.87   34.45
  -3  -3  -4 1384.30   37.18
  -3  -3  -4 1348.90   26.51
  -3   3  -4 1407.29   42.79
   3  -3   4 1453.06   47.84
   3   3   4 1519.85   48.70
  -3  -3  -6 1866.78   51.86
  -3   3  -6 1897.13   64.92
  -3   3  -6 2025.07   56.76
  -3  -3  -6 1871.89   61.58
  -3   3  -6 1856.95   63.58
  -3  -3  -6 1948.72   64.70
   3   3   6 1963.65   45.61
  -3  -3  -6 2048.65   48.97
  -3   3  -6 1902.41   55.42
   3   3   6 1951.62   64.63
   3  -3   6 1842.23   63.03
  -3   3  -8 1217.80   55.46
  -3  -3  -8 1151.82   51.48
  -3   3  -8 1231.91   54.67
  -3  -3  -8 1266.01   55.08
  -3   3  -8 1249.12   44.56
   3   3   8 1242.41   54.61
   3  -3   8 1174.33   52.98
  -3   4  15   18.90    9.96
  -3  -4  15   32.87   10.98
   3   4 -15   14.59   10.02
   3  -4 -15   43.13   13.04
  -3   4  15   15.51    9.78
  -3  -4  15    1.79    6.86
  -3  -4  13   21.38    8.73
  -3   4  13   11.44    6.52
   3  -4 -13    8.17    6.46
   3   4 -13   11.40    6.74
   3   4 -13   20.39    9.09
   3  -4 -13   13.87    7.34
  -3   4  13   11.27    6.86
  -3  -4  13   16.13    6.18
  -3   4  11   22.14    6.81
  -3  -4  11   20.34    6.98
   3   4 -11   16.55    6.63
   3  -4 -11   24.67    7.06
   3  -4 -11   33.87    8.88
  -3  -4  11   25.62    3.33
   3   4 -11   30.12    8.59
  -3   4  11   30.24    4.68
  -3   4  11   20.67    6.11
  -3  -4  11   23.49    8.41
  -3  -4  11   28.51    4.65
  -3   4  11   28.13    5.01
  -3  -4  11   36.59    6.08
   3   4 -11   28.79    5.92
   3   4  -9   27.49    6.35
   3  -4  -9   24.52    6.37
  -3  -4   9   18.25    3.93
  -3   4   9   23.47    3.70
  -3  -4   9   22.10    3.62
   3   4  -9   24.12    6.53
   3  -4  -9   23.00    6.87
   3  -4  -9   23.02    2.29
  -3   4   9   26.03    5.47
  -3  -4   9   18.05    6.04
  -3  -4   9   18.36    3.94
  -3   4   9   29.98    5.26
   3   4  -9   32.76    5.77
  -3  -4   9   24.72    5.77
  -3  -4   7  598.15   22.69
   3   4  -7  567.69   22.11
   3  -4  -7  553.41   21.83
  -3   4   7  556.60   21.96
  -3   4   7  642.14   23.10
  -3  -4   7  608.01   22.24
  -3  -4   7  589.57   19.78
   3  -4  -7  556.28   18.06
  -3  -4   7  594.56   19.38
   3   4  -7  591.33   23.24
  -3  -4   7  594.14   22.31
  -3   4   7  621.45   20.45
   3   4  -7  577.78   23.50
  -3   4   7  590.66   21.06
  -3   4   7  592.23   20.62
  -3  -4   7  569.54   24.98
   3  -4  -7  655.24   24.77
   3   4  -7  603.06   22.90
   3  -4  -5  122.39    8.16
   3   4  -5  124.67    8.18
  -3   4   5  119.07    8.24
  -3  -4   5  121.30    8.24
  -3  -4   5  113.01    7.14
  -3   4   5  108.86    6.30
   3   4  -5  114.18    7.33
  -3  -4   5  107.96    7.99
  -3  -4   5  104.30    6.75
   3   4  -5  112.49    7.89
  -3  -4   5   84.14    8.39
   3   4  -5  115.57    9.00
   3  -4  -5  123.68    6.39
  -3   4   5  103.83    6.00
  -3  -4   5  130.25    9.31
  -3   4   5  109.33    8.40
  -3   4   5  116.77    9.57
  -3  -4   5  109.63    9.39
   3  -4  -5  117.67    9.07
  -3  -4   3   34.27    4.55
  -3   4   3   41.12    4.83
   3   4  -3   32.84    4.95
   3  -4  -3   41.71    5.13
   3   4  -3   38.01    5.28
  -3   4   3   35.49    4.68
  -3  -4   3   34.57    5.05
  -3  -4   3   33.81    5.28
   3   4  -3   34.37    5.08
   3   4  -3   33.84    4.92
  -3  -4   3   45.55    4.96
   3  -4  -3   37.63    3.60
  -3  -4   3   48.42    6.08
   3   4  -3   40.66    5.51
  -3   4   3   33.80    5.21
   3   4  -3   40.13    3.40
  -3  -4   3   33.71    4.38
  -3   4   3   33.50    4.51
   3  -4  -3   39.36    5.10
  -3   4   3   40.31    5.74
   3  -4  -3   37.89    5.82
   3  -4  -1  152.54    9.60
   3   4  -1  169.80   10.19
  -3  -4   1  175.69   10.02
  -3   4   1  170.71    9.78
  -3  -4   1  147.42    9.57
  -3   4   1  172.93   10.13
  -3   4   1  167.71   10.96
   3  -4  -1  172.05   11.29
   3   4  -1  162.52   12.25
   3   4  -1  166.59   11.19
  -3  -4   1  156.70    6.68
  -3  -4   1  195.56   12.72
   3   4  -1  182.38    9.74
  -3  -4   1  162.62    8.86
  -3   4   1  180.56    7.15
  -3  -4   1  166.25    9.15
  -3   4   1  167.74    9.16
  -3   4   1  175.95   11.12
  -3   4   1  160.08    8.88
   3  -4  -1  160.68    8.97
   3  -4   1   33.01    5.40
   3   4   1   23.77    5.57
  -3   4  -1   32.28    5.83
  -3  -4  -1   27.25    5.39
  -3   4  -1   35.78    6.13
  -3  -4  -1   31.18    4.67
   3   4   1   33.24    5.84
   3   4   1   36.10    5.05
  -3  -4  -1   23.48    4.05
   3   4   1   31.30    4.28
  -3   4  -1   33.95    5.70
  -3   4  -1   17.86    5.43
  -3  -4  -1   24.41    3.61
  -3   4  -1   26.29    3.58
   3  -4   1   25.16    3.12
  -3   4  -3  213.59   15.73
  -3  -4  -3  211.49   15.74
  -3   4  -3  199.24   16.02
  -3   4  -3  211.10   14.59
   3   4   3  191.60   13.49
  -3  -4  -3  193.22   13.77
   3   4   3  190.79   10.84
  -3   4  -3  214.68    8.66
  -3  -4  -3  212.69    9.18
  -3   4  -3  194.98   14.16
   3  -4   3  221.64   16.15
   3   4   3  221.57   16.39
  -3   4  -5  255.99   20.76
  -3   4  -5  293.84   18.42
  -3  -4  -5  295.43   20.32
  -3   4  -5  258.39   20.20
  -3  -4  -5  271.45   20.96
   3   4   5  271.93   13.87
  -3   4  -5  249.50   17.27
  -3  -4  -5  285.72   14.23
   3   4   5  254.25   20.03
   3  -4   5  278.42   20.63
  -3   4  -7    3.88    6.50
  -3  -4  -7   26.74    9.02
  -3   4  -7   30.76    7.53
   3   4   7    8.98    8.10
   3  -4   7   26.78    9.75
  -3   4  -7   29.78    7.76
  -3  -4  -7   25.26    8.77
  -3   4  -7   36.41   10.61
   3   4   9   34.33   12.32
   3  -4   9   42.97   13.38
  -3   4  -9   44.24   12.22
  -3  -4  -9   34.62   11.59
  -3   4  -9   22.91   11.13
  -3  -4  -9   16.60    9.02
   3   5 -14  696.85   42.28
   3  -5 -14  751.49   43.33
  -3  -5  14  699.11   38.47
  -3   5  14  707.03   39.35
  -3   5  14  776.74   40.66
  -3  -5  14  717.59   40.55
  -3  -5  12  653.19   34.27
  -3   5  12  646.22   32.61
  -3  -5  12  609.03   22.82
   3   5 -12  658.48   36.41
   3  -5 -12  614.84   35.18
  -3   5  12  624.85   22.43
  -3   5  12  621.13   32.55
  -3  -5  12  617.06   31.85
   3  -5 -12  622.23   33.18
   3   5 -12  619.04   33.55
   3  -5 -10  907.32   35.61
  -3   5  10  925.11   27.63
  -3  -5  10  924.66   26.27
   3   5 -10  859.67   36.98
   3  -5 -10  856.75   38.40
   3  -5 -10  837.45   19.72
  -3  -5  10  862.07   36.33
  -3   5  10  913.14   28.74
  -3  -5  10  892.41   27.67
  -3   5  10  903.95   34.10
  -3  -5  10  907.00   31.56
  -3   5  10  952.81   35.81
   3   5  -8 1307.21   39.34
   3  -5  -8 1386.66   40.21
  -3   5   8 1364.73   33.57
  -3  -5   8 1379.41   36.40
   3  -5  -8 1304.71   44.41
  -3  -5   8 1324.96   34.62
   3   5  -8 1287.30   41.24
  -3   5   8 1395.55   37.06
  -3  -5   8 1279.46   35.46
   3   5  -8 1313.36   41.27
  -3   5   8 1291.60   36.28
  -3  -5   8 1372.89   43.07
  -3   5   8 1331.76   37.46
  -3   5   6 4627.02   90.54
  -3  -5   6 4542.48   90.51
   3   5  -6 4572.74   89.96
   3  -5  -6 4609.26   90.25
  -3  -5   6 4552.89   89.66
  -3   5   6 4707.18   90.22
  -3   5   6 4548.56   81.89
   3  -5  -6 4465.48   87.02
  -3  -5   6 4513.08   87.66
  -3  -5   6 4511.97   89.43
  -3  -5   6 4643.29   90.16
   3   5  -6 4511.70   90.39
  -3  -5   6 4651.71   89.67
  -3  -5   6 4417.50   94.59
  -3  -5   6 4733.38   94.00
  -3   5   6 4680.33   84.61
  -3  -5   6 4538.42   90.14
   3   5  -6 4569.13   93.32
  -3   5   6 4584.56   82.83
  -3   5   6 4557.06   91.08
  -3  -5   6 4480.58   94.24
  -3   5   6 4591.28   85.20
   3  -5  -6 4776.76   95.50
   3  -5  -4 1760.16   40.39
   3   5  -4 1750.63   40.17
  -3  -5   4 1698.09   40.84
  -3   5   4 1761.03   41.22
   3  -5  -4 1765.03   40.26
   3   5  -4 1765.01   42.18
   3   5  -4 1792.07   36.22
  -3   5   4 1685.72   39.43
  -3  -5   4 1812.94   42.42
  -3  -5   4 1825.49   35.62
  -3  -5   4 1808.57   43.95
   3   5  -4 1794.40   43.39
  -3  -5   4 1752.94   42.91
   3   5  -4 1746.15   44.22
   3  -5  -4 1741.26   33.38
  -3  -5   4 1774.41   42.33
   3   5  -4 1705.02   43.39
  -3  -5   4 1830.05   44.91
  -3   5   4 1753.37   40.20
  -3   5   4 1790.33   46.31
  -3   5   4 1837.90   43.32
  -3  -5   4 1766.56   37.90
   3  -5  -4 1738.71   46.20
   3  -5  -4 1795.10   44.11
  -3   5   2 4201.97   80.05
  -3  -5   2 4254.82   80.37
   3  -5  -2 4337.44   84.80
  -3   5   2 4146.43   83.59
   3   5  -2 4071.76   87.00
  -3  -5   2 4125.54   86.36
   3   5  -2 4132.69   85.52
   3   5  -2 4178.08   82.69
  -3  -5   2 4152.85   82.01
   3   5  -2 4255.63   81.41
   3  -5  -2 4047.90   80.81
  -3   5   2 4085.17   78.72
   3   5  -2 4126.99   85.05
  -3  -5   2 4145.26   81.91
  -3   5   2 4264.03   84.29
  -3   5   2 4237.38   82.47
   3   5  -2 4078.57   79.36
   3  -5  -2 4235.19   88.37
   3  -5  -2 4291.47   81.97
  -3   5   2 4230.15   75.49
   3   5   0 2437.33   56.77
   3  -5   0 2458.73   56.68
  -3  -5   0 2467.53   56.42
  -3   5   0 2600.73   56.89
  -3  -5   0 2513.37   56.99
  -3   5   0 2434.18   56.42
  -3   5   0 2432.85   58.56
   3   5   0 2572.29   59.85
  -3  -5   0 2601.92   51.66
  -3  -5   0 2477.75   61.41
   3   5   0 2632.22   55.31
  -3   5   0 2481.90   47.94
  -3  -5   0 2494.11   54.58
  -3  -5   0 2481.46   53.48
  -3   5   0 2562.03   53.69
  -3   5   0 2542.50   59.44
  -3   5   0 2634.13   55.85
   3  -5   0 2494.54   51.55
  -3   5  -2 3811.26   84.34
  -3  -5  -2 3683.24   83.58
  -3   5  -2 3801.13   84.08
  -3  -5  -2 3812.44   80.02
   3   5   2 3677.45   82.59
   3   5   2 3749.44   82.39
   3   5   2 3679.70   76.31
  -3  -5  -2 3701.63   73.00
  -3   5  -2 3901.40   72.89
  -3   5  -2 3761.32   84.17
   3  -5   2 3701.63   83.75
   3   5   2 3652.87   83.60
  -3  -5  -4 1326.18   46.15
  -3   5  -4 1377.42   46.61
  -3   5  -4 1331.15   43.28
  -3   5  -4 1440.95   50.08
  -3  -5  -4 1347.05   43.69
   3   5   4 1318.11   36.72
  -3   5  -4 1371.31   30.16
  -3  -5  -4 1310.26   31.21
  -3   5  -4 1330.59   43.81
   3   5   4 1309.81   45.82
   3  -5   4 1372.74   46.56
  -3   5  -6 1577.94   57.13
  -3  -5  -6 1570.31   57.02
  -3  -5  -6 1530.27   53.97
  -3   5  -6 1574.19   59.58
  -3   5  -6 1580.16   50.59
   3   5   6 1558.16   42.80
  -3   5  -6 1589.88   51.66
   3   5   6 1627.92   57.46
   3  -5   6 1578.38   56.76
  -3  -5  -8  936.37   47.24
  -3   5  -8  985.14   48.64
  -3   5  -8  973.11   50.22
  -3   5  -8 1028.25   41.01
  -3  -5  -8  978.21   46.52
  -3   5  -8 1001.49   41.66
   3   5   8 1127.33   51.39
   3  -5   8  947.05   47.37
  -3  -6  15   37.54   11.42
  -3   6  15   23.54    9.06
   3   6 -15   26.98   11.32
   3  -6 -15   35.64   11.26
  -3  -6  15   42.36   11.73
  -3   6  15   26.70    9.84
  -3   6  13   23.36    8.80
  -3   6  13   25.77    9.03
  -3  -6  13   34.33   10.57
  -3   6  13   48.63   10.45
  -3  -6  13   46.70   10.42
   3   6 -13   41.19   10.28
   3  -6 -13   30.58   10.00
   3   6 -11  100.04   14.00
  -3  -6  11  132.33    9.54
   3  -6 -11  107.69   14.61
  -3   6  11  113.55   12.50
  -3  -6  11   76.61   11.19
  -3   6  11  105.81    9.21
  -3   6  11  103.18   12.16
  -3  -6  11  105.96   12.61
  -3  -6  11  137.33   11.19
  -3   6   9  322.55   15.15
   3   6  -9  316.26   20.45
  -3  -6   9  319.09   15.57
   3  -6  -9  327.66   13.03
   3  -6  -9  370.47   23.28
  -3  -6   9  306.53   19.67
  -3   6   9  300.59   15.82
  -3   6   9  308.17   17.28
  -3  -6   9  330.29   20.01
   3   6  -9  301.15   18.22
   3  -6  -9  345.95   19.47
  -3   6   7   10.14    3.66
  -3  -6   7    9.25    3.57
   3   6  -7    3.75    3.44
  -3  -6   7    3.67    2.19
   3  -6  -7    1.79    3.36
  -3   6   7    3.25    3.43
   3  -6  -7    5.90    3.12
  -3  -6   7    8.82    3.65
  -3  -6   7    6.20    3.41
   3   6  -7    2.58    3.22
  -3  -6   7    2.89    3.01
  -3   6   7    5.94    2.99
  -3   6   7    3.74    2.01
   3   6  -7    3.32    3.44
  -3   6   7    7.61    3.90
  -3   6   7    2.28    1.23
  -3  -6   7    5.59    3.04
  -3  -6   7    9.95    4.28
   3   6  -5    5.48    3.01
   3  -6  -5    5.56    2.81
  -3   6   5    2.06    2.83
  -3  -6   5    0.98    2.42
  -3   6   5    7.52    2.38
   3  -6  -5    0.95    2.75
  -3  -6   5    1.08    2.49
   3  -6  -5   -0.27    1.96
   3   6  -5   -0.55    2.30
  -3  -6   5    3.07    2.34
  -3  -6   5   -0.11    2.97
   3   6  -5    2.47    3.96
  -3  -6   5    4.36    3.19
  -3   6   5    2.07    1.37
   3   6  -5   -1.60    3.09
  -3  -6   5    3.41    3.94
  -3   6   5    0.56    1.51
  -3   6   5   -4.63    4.03
  -3   6   5   -1.06    2.31
  -3  -6   5   -0.52    2.33
  -3  -6   5    5.17    3.91
   3  -6  -5    3.50    3.17
  -3   6   5    6.47    4.04
  -3  -6   5    6.35    3.05
   3  -6  -3 2016.38   45.74
   3   6  -3 2023.93   45.64
  -3   6   3 2070.54   48.03
   3   6  -3 2118.38   51.08
  -3  -6   3 2043.91   50.71
  -3  -6   3 2134.15   39.37
   3  -6  -3 2161.83   49.01
  -3  -6   3 2054.83   51.08
   3   6  -3 2078.56   50.91
   3   6  -3 2133.11   50.20
  -3  -6   3 2138.88   49.20
  -3  -6   3 2083.94   45.39
  -3   6   3 2024.88   45.06
  -3   6   3 2154.89   47.88
  -3  -6   3 1998.85   50.82
   3  -6  -3 2089.83   39.29
  -3  -6   3 2083.50   48.86
   3   6  -3 1966.12   49.98
  -3   6   3 2082.43   49.20
   3  -6  -3 2131.46   54.32
  -3   6   3 2074.71   48.26
   3   6  -3 2203.74   45.68
  -3   6   3 2070.24   54.22
   3  -6  -3 2177.35   49.78
   3   6  -1   30.30    4.66
   3  -6  -1   20.90    3.71
  -3  -6   1   20.69    3.95
  -3   6   1   27.19    4.07
  -3  -6   1   29.83    4.56
  -3   6   1   22.98    3.71
  -3   6   1   37.71    6.13
   3   6  -1   22.48    4.72
  -3  -6   1   27.77    3.13
  -3  -6   1   25.35    5.14
  -3  -6   1   26.62    4.61
  -3   6   1   31.16    3.99
  -3   6   1   27.88    3.78
   3   6  -1   21.67    4.48
  -3   6   1   22.13    4.40
  -3   6   1   23.63    5.40
  -3  -6   1   23.79    4.45
   3  -6  -1   33.42    4.67
   3  -6  -1   24.86    6.00
   3   6   1  329.49   16.77
   3  -6   1  324.78   16.72
  -3  -6  -1  328.89   16.79
  -3   6  -1  342.61   17.13
  -3   6  -1  311.32   17.31
  -3  -6  -1  322.23   14.39
  -3  -6  -1  321.04   18.85
  -3   6  -1  315.63   11.20
   3   6   1  318.74   15.37
  -3   6  -1  310.10   16.22
  -3  -6  -1  287.07   14.95
  -3  -6  -1  358.54   15.14
  -3   6  -1  343.61   14.34
  -3   6  -1  311.78   17.88
   3  -6   1  316.33   12.28
  -3  -6  -3   72.50    9.52
  -3   6  -3   77.90    9.67
  -3   6  -3   84.33    9.70
  -3  -6  -3   61.44    8.23
   3   6   3   66.82    7.54
   3  -6   3   63.77    9.05
  -3   6  -3   65.01    5.96
  -3   6  -3   61.60    9.15
  -3  -6  -3   55.28    5.70
   3   6   3   73.25    9.56
   3  -6   3   57.87    9.09
  -3   6  -5   -1.22    4.54
  -3  -6  -5    4.24    5.00
  -3   6  -5    7.39    6.21
  -3  -6  -5   -3.23    5.27
  -3   6  -5    1.11    5.32
   3   6   5    3.24    3.39
  -3   6  -5    4.80    5.23
  -3  -6  -5    4.14    3.07
   3   6   5    0.30    5.03
   3  -6   5    5.42    5.83
  -3   6  -7   75.27   11.44
  -3   6  -7   50.33   11.72
  -3  -6  -7   84.01   12.87
  -3   6  -7   87.27   12.34
  -3   6  -7   61.33   12.03
  -3  -6  -7   60.85   11.96
   3   6   7   53.21   11.47
   3  -6   7   49.78   11.16
  -3  -6  -9   23.35    9.46
   3   6   9   27.76   10.26
   3  -6   9   53.67   13.49
  -3  -6  -9   22.79   10.51
  -3   6  -9   37.60   11.16
   3  -7 -14 1098.79   54.50
   3   7 -14 1284.27   59.58
  -3   7  14 1074.39   46.77
  -3  -7  14 1205.62   51.77
  -3   7  14 1294.79   54.01
  -3  -7  14 1232.73   54.69
   3   7 -12 1721.96   63.41
   3  -7 -12 1782.04   64.32
  -3   7  12 1649.70   56.29
  -3   7  12 1628.30   45.12
  -3   7  12 1806.01   59.16
  -3  -7  12 1643.74   56.46
  -3   7  12 1707.31   56.79
  -3  -7  12 1700.84   60.10
  -3   7  10 1022.08   32.59
   3  -7 -10  983.37   27.57
  -3  -7  10 1027.76   32.18
   3   7 -10 1119.16   43.26
   3  -7 -10 1021.12   43.15
  -3  -7  10 1015.34   40.25
  -3   7  10 1003.91   32.79
  -3   7  10 1040.79   38.49
  -3  -7  10 1028.38   37.87
  -3  -7  10 1042.44   37.49
  -3   7  10 1015.35   36.52
   3  -7  -8 3309.90   74.77
   3   7  -8 3339.99   79.89
  -3  -7   8 3366.36   73.70
  -3   7   8 3424.26   70.59
   3   7  -8 3405.69   79.97
  -3   7   8 3307.30   74.19
  -3  -7   8 3353.54   79.26
  -3   7   8 3409.03   72.22
   3   7  -8 3229.15   75.17
   3  -7  -8 3320.82   75.58
   3   7  -6 2157.39   49.21
  -3   7   6 2138.70   50.01
  -3  -7   6 2108.41   50.01
   3  -7  -6 2152.22   49.29
  -3   7   6 2238.54   49.39
  -3  -7   6 2042.82   48.61
  -3  -7   6 2208.11   52.00
   3   7  -6 2067.39   51.56
   3  -7  -6 2162.48   51.47
   3  -7  -6 2181.64   46.46
  -3   7   6 2136.62   45.41
  -3  -7   6 2230.31   50.89
  -3  -7   6 2187.00   53.16
  -3   7   6 2217.93   53.16
   3   7  -6 2091.04   53.53
  -3   7   6 2154.72   42.77
  -3   7   6 2114.47   45.03
  -3   7   6 2102.86   43.73
  -3  -7   6 2095.42   53.89
   3  -7  -4 4226.79   81.81
   3   7  -4 4219.95   81.67
  -3   7   4 4270.74   85.08
   3   7  -4 4369.40   89.77
   3  -7  -4 4335.60   85.89
  -3  -7   4 4319.28   89.46
  -3  -7   4 4322.27   90.40
  -3  -7   4 4456.85   80.24
   3   7  -4 4476.77   91.10
  -3   7   4 4396.10   88.46
  -3  -7   4 4478.40   90.75
  -3   7   4 4195.70   88.21
   3   7  -4 4254.80   88.44
  -3  -7   4 4273.29   85.43
  -3   7   4 4202.56   85.02
  -3   7   4 4345.62   95.75
   3  -7  -4 4194.10   95.16
   3  -7  -4 4440.07   90.65
  -3  -7   2 1888.79   41.75
  -3   7   2 1873.13   41.43
  -3   7   2 1827.58   41.31
  -3  -7   2 1952.81   51.55
  -3   7   2 1843.32   46.98
  -3  -7   2 1819.65   49.42
   3   7  -2 1894.51   47.43
  -3   7   2 1907.30   37.07
  -3  -7   2 1845.58   46.32
  -3   7   2 1833.56   43.36
   3   7  -2 1782.04   47.72
   3   7  -2 1893.97   47.14
  -3  -7   2 1876.75   46.28
  -3   7   2 1880.82   46.59
   3   7  -2 1861.77   45.19
   3  -7  -2 1899.38   53.06
   3  -7  -2 1957.05   48.29
  -3   7   2 1885.80   47.64
   3  -7  -2 1932.60   47.59
   3  -7  -2 1955.91   46.34
   3   7   0 1188.16   33.42
   3  -7   0 1102.36   32.69
  -3  -7   0 1173.19   32.74
  -3   7   0 1153.48   32.26
  -3  -7   0 1136.12   32.79
  -3   7   0 1180.63   32.98
  -3   7   0 1147.30   36.37
  -3  -7   0 1135.33   37.86
  -3  -7   0 1220.70   29.61
  -3   7   0 1156.99   29.05
   3   7   0 1144.79   34.04
  -3   7   0 1129.46   31.71
   3   7   0 1145.07   33.49
  -3  -7   0 1157.52   32.95
  -3   7   0 1153.11   32.67
   3  -7   0 1235.64   42.68
  -3   7   0 1156.25   37.07
   3  -7   0 1144.77   33.42
   3  -7   0 1167.47   30.66
   3  -7   2 1491.22   44.34
   3   7   2 1485.84   44.26
  -3  -7  -2 1500.65   44.45
  -3   7  -2 1510.61   44.34
  -3   7  -2 1545.81   46.39
  -3  -7  -2 1510.66   41.11
  -3  -7  -2 1506.63   48.28
   3   7   2 1491.15   41.79
  -3   7  -2 1550.24   38.78
  -3  -7  -2 1480.78   38.89
  -3   7  -2 1501.59   46.65
   3  -7   2 1554.53   33.76
   3  -7   2 1481.61   43.81
   3   7   4 2676.34   73.16
   3  -7   4 2706.63   73.19
  -3   7  -4 2733.78   73.67
  -3  -7  -4 2714.71   73.83
  -3   7  -4 2706.29   72.14
  -3  -7  -4 2740.88   70.09
   3   7   4 2799.52   66.08
  -3   7  -4 2828.97   58.92
  -3   7  -4 2711.12   72.97
   3  -7   4 2853.07   74.42
  -3   7  -6  727.57   36.75
  -3  -7  -6  714.48   36.66
  -3  -7  -6  731.29   34.80
  -3   7  -6  644.36   37.58
  -3   7  -6  727.72   33.70
   3   7   6  662.65   27.94
  -3   7  -6  675.94   33.46
   3  -7   6  698.04   35.99
   3   7   6  711.46   36.48
  -3   7  -8  595.82   31.93
  -3   7  -8  647.08   41.19
  -3  -7  -8  611.58   35.71
  -3  -7  -8  562.00   36.49
  -3   7  -8  600.74   37.22
   3   7   8  595.09   37.16
   3  -7   8  558.72   35.99
  -3   8  15   -3.73    6.17
   3  -8 -15   -3.29    8.89
  -3   8  15   10.72    9.79
  -3  -8  15    6.17    7.97
  -3  -8  13   -9.28    7.71
  -3   8  13    4.29    6.95
  -3   8  13    7.29    7.73
  -3  -8  13   10.73    6.94
   3   8 -13   13.75    9.53
   3  -8 -13   11.76    8.89
   3   8 -11  183.01   18.96
   3  -8 -11  137.25   17.04
  -3  -8  11  120.81   10.83
  -3   8  11  108.18   14.35
  -3  -8  11  165.24   16.96
  -3   8  11  137.42   11.50
  -3  -8  11  164.53   13.76
  -3   8  11  149.41   14.81
  -3  -8  11  134.54   14.11
  -3  -8   9   91.82   10.87
   3  -8  -9   96.26    8.23
   3   8  -9  101.25   12.41
   3  -8  -9  111.81   14.07
  -3  -8   9   75.53    8.40
  -3   8   9   77.88   10.58
  -3   8   9  100.49    9.86
  -3  -8   9  115.21   12.69
  -3   8   9   80.80    8.95
  -3   8   9   86.27    9.73
   3   8  -7  129.12   10.10
   3  -8  -7  124.34    9.90
  -3  -8   7  121.05    9.99
  -3   8   7  132.24   10.26
  -3   8   7  146.48   10.55
  -3  -8   7  134.58    9.92
   3   8  -7  138.79   11.98
  -3  -8   7  155.15   11.74
   3  -8  -7  144.35    8.41
   3  -8  -7  122.74   10.71
  -3  -8   7  130.01   11.16
  -3   8   7  139.03   12.34
  -3   8   7  126.73   11.07
   3   8  -7  133.26   11.96
  -3   8   7  131.47    7.80
  -3   8   7  155.47    7.83
  -3  -8   7  138.23   11.91
  -3   8   5  302.41   12.85
  -3  -8   5  312.36   13.10
  -3  -8   5  306.64   16.39
   3  -8  -5  301.13   16.47
  -3   8   5  324.18   14.33
   3  -8  -5  302.68   14.15
  -3  -8   5  324.06   14.16
  -3  -8   5  324.35   17.49
   3   8  -5  295.35   17.33
  -3   8   5  323.08   17.31
   3   8  -5  321.58   16.62
  -3   8   5  311.55   16.56
  -3  -8   5  291.76   16.69
  -3  -8   5  307.48   15.98
  -3   8   5  313.67   14.03
   3   8  -5  299.56   12.95
   3  -8  -5  305.52   13.09
  -3  -8   5  302.60   13.99
  -3   8   5  298.78   13.78
  -3  -8   3   20.61    3.33
  -3   8   3   17.97    3.08
   3   8  -3   14.49    3.35
   3  -8  -3   12.24    3.32
  -3  -8   3   16.76    5.14
  -3   8   3   21.51    4.32
  -3  -8   3   19.57    3.13
  -3  -8   3   21.21    5.96
   3   8  -3   23.92    5.48
  -3   8   3   19.76    5.03
  -3  -8   3   28.31    5.63
   3   8  -3   16.11    4.95
   3   8  -3   23.97    5.49
  -3   8   3   19.12    4.83
   3  -8  -3   19.76    4.75
  -3   8   3   30.82    5.58
   3  -8  -3    9.34    5.24
   3   8  -3   15.52    3.89
   3  -8  -1   58.17    6.17
  -3   8   1   65.35    5.89
  -3  -8   1   59.86    5.80
   3   8  -1   61.01    6.26
  -3  -8   1   66.70    6.33
  -3   8   1   65.51    6.16
  -3   8   1   57.55    7.70
  -3  -8   1   47.70    8.01
  -3  -8   1   68.11    8.75
   3   8  -1   72.28    8.28
  -3   8   1   59.26    6.16
   3   8  -1   57.89    7.91
   3   8  -1   58.16    7.13
  -3   8   1   72.04    8.75
  -3   8   1   57.44    7.12
   3  -8  -1   58.01    9.72
   3   8  -1   60.76    7.58
   3  -8  -1   71.67    7.22
   3   8   1   54.19    7.15
   3  -8   1   59.70    7.15
  -3  -8  -1   62.37    7.35
  -3   8  -1   53.93    7.03
  -3   8  -1   45.02    7.47
  -3  -8  -1   67.24    9.48
  -3  -8  -1   61.23    6.48
   3  -8   1   58.38    5.72
  -3   8  -1   67.87    6.33
   3   8   1   64.26    8.28
   3  -8   1   60.10    7.14
  -3   8  -1   56.95    7.04
  -3   8  -1   58.53    8.52
   3   8   1   55.01    7.20
  -3   8  -1   67.51    7.48
   3  -8   1   60.46    5.92
   3  -8   3  157.64   13.63
   3   8   3  162.74   13.95
  -3  -8  -3  148.33   13.53
  -3   8  -3  148.42   13.40
  -3   8  -3  160.31   14.12
  -3  -8  -3  158.01   12.48
   3   8   3  149.67   12.53
   3  -8   3  141.03    8.00
  -3   8  -3  150.32   10.44
  -3   8  -3  118.22   12.78
   3  -8   3  132.58   12.88
  -3   8  -5  129.63   13.91
  -3  -8  -5  146.56   14.63
  -3   8  -5  117.33   13.56
  -3  -8  -5  113.52   14.08
   3  -8   5  137.66   14.87
   3   8   5  150.46   12.84
  -3   8  -5  134.27   14.72
   3   8   5  143.77   15.41
   3  -8   5  113.70   13.69
  -3   8  -7   58.41   10.83
  -3  -8  -7   46.61    9.98
  -3   8  -7   42.00    9.97
  -3  -8  -7   32.58    9.85
  -3   8  -7   36.19   10.04
   3   8   7   60.20   11.86
   3  -8   7   53.95   11.45
  -3  -8  -9    8.97    7.48
   3   9 -14 1052.82   54.48
   3  -9 -14 1043.52   53.02
  -3   9  14  998.19   44.87
  -3  -9  14 1004.79   47.10
  -3   9  14  962.43   46.76
  -3  -9  14 1085.15   51.74
   3   9 -12 1036.03   48.83
   3  -9 -12 1050.26   48.89
  -3   9  12 1020.99   43.45
  -3   9  12 1023.84   35.29
  -3  -9  12  964.11   41.36
  -3   9  12 1030.11   43.31
  -3  -9  12 1050.82   46.41
   3   9 -10 1652.68   58.13
   3  -9 -10 1710.86   44.78
  -3  -9  10 1698.95   48.84
   3  -9 -10 1725.79   60.60
  -3  -9  10 1580.66   54.56
  -3   9  10 1860.55   57.11
  -3   9  10 1707.93   48.68
  -3   9  10 1708.17   52.43
  -3  -9  10 1686.44   51.58
  -3  -9  10 1736.53   53.55
   3   9  -8 2075.28   59.96
  -3  -9   8 2055.29   55.67
   3  -9  -8 2043.73   56.70
   3  -9  -8 2150.04   45.66
  -3  -9   8 2122.47   56.29
  -3   9   8 2208.47   60.90
  -3   9   8 2077.06   55.29
   3   9  -8 2012.69   58.18
  -3   9   8 2122.83   48.00
  -3  -9   8 2133.79   57.99
   3   9  -8 2119.58   54.01
   3  -9  -8 2116.87   54.28
  -3  -9   6 2014.85   47.36
  -3   9   6 2151.74   48.16
  -3  -9   6 2047.35   54.42
  -3   9   6 2034.50   47.99
   3  -9  -6 2043.39   54.73
   3  -9  -6 2039.50   48.48
  -3  -9   6 2118.06   51.78
  -3  -9   6 2070.63   55.53
   3   9  -6 2081.95   58.10
  -3   9   6 2129.43   56.82
  -3   9   6 2090.16   54.57
   3   9  -6 2128.33   54.90
  -3   9   6 2142.95   39.51
  -3  -9   6 2099.76   57.00
  -3   9   6 2124.26   47.52
   3   9  -6 2106.30   48.29
   3  -9  -6 2084.04   48.03
  -3   9   6 2127.19   49.61
  -3  -9   6 2138.34   49.63
  -3  -9   4 1573.91   45.64
  -3   9   4 1502.45   40.97
  -3  -9   4 1610.92   37.35
  -3  -9   4 1582.17   45.96
   3   9  -4 1569.85   45.40
  -3   9   4 1582.59   43.36
  -3  -9   4 1585.04   44.83
   3   9  -4 1586.91   44.82
   3   9  -4 1523.54   42.47
  -3   9   4 1541.26   43.78
   3  -9  -4 1602.48   41.77
  -3   9   4 1530.42   41.09
  -3  -9   4 1488.58   42.45
   3  -9  -4 1503.11   49.83
   3  -9  -4 1510.76   34.94
   3   9  -4 1524.66   34.97
  -3  -9   2 4011.08   77.75
  -3   9   2 4082.31   77.37
  -3   9   2 4111.39   88.23
  -3  -9   2 4036.34   92.67
  -3  -9   2 4132.90   91.65
   3   9  -2 4274.23   89.67
  -3   9   2 4247.29   84.84
   3   9  -2 3882.72   87.12
   3   9  -2 4165.45   89.11
  -3   9   2 4163.13   87.69
   3  -9  -2 4025.70   73.63
  -3   9   2 4137.90   88.81
   3   9  -2 4099.97   87.43
   3  -9  -2 4077.10   96.55
  -3  -9   2 4109.55   77.68
  -3   9   2 3966.25   77.19
   3  -9   0 1527.37   40.51
   3   9   0 1575.47   40.87
  -3  -9   0 1540.52   39.92
  -3   9   0 1611.84   39.80
  -3  -9   0 1530.20   40.13
  -3   9   0 1558.14   39.62
  -3   9   0 1537.46   46.69
  -3  -9   0 1536.69   48.03
  -3  -9   0 1605.62   38.50
   3   9   0 1526.20   44.46
  -3   9   0 1575.24   39.79
   3  -9   0 1631.95   40.51
   3   9   0 1548.05   45.34
   3   9   0 1546.74   44.37
  -3   9   0 1539.78   42.93
   3  -9   0 1503.59   53.03
  -3   9   0 1563.85   47.20
   3  -9   0 1612.95   41.38
   3  -9   0 1548.81   38.52
   3   9   2 1036.13   35.23
   3  -9   2  937.24   33.73
  -3   9  -2 1045.12   34.93
  -3  -9  -2 1013.46   34.65
  -3   9  -2 1004.33   37.98
  -3  -9  -2 1058.83   39.84
  -3  -9  -2 1032.13   32.79
   3   9   2 1079.33   35.96
   3  -9   2  973.60   27.99
  -3   9  -2  990.87   29.22
   3   9   2 1012.28   33.34
  -3   9  -2 1053.74   32.67
  -3   9  -2 1006.11   38.50
   3  -9   2 1005.45   34.09
   3  -9   2 1013.59   27.84
   3  -9   4  400.34   23.66
   3   9   4  394.85   23.71
  -3   9  -4  422.61   24.29
  -3  -9  -4  416.00   24.18
  -3   9  -4  387.57   23.96
  -3  -9  -4  413.14   22.64
   3   9   4  421.45   22.50
  -3   9  -4  414.81   18.73
  -3   9  -4  393.75   25.10
   3  -9   4  395.56   23.76
  -3   9  -6  395.42   25.56
  -3  -9  -6  371.28   24.71
  -3  -9  -6  386.03   26.32
  -3   9  -6  405.70   26.98
   3   9   6  403.62   22.74
  -3   9  -6  403.65   26.78
   3  -9   6  378.52   26.03
   3   9   6  424.19   28.06
  -3  -9  -8  445.91   30.44
  -3   9  -8  416.89   30.94
  -3  -9  -8  502.32   33.63
   3  -9   8  437.08   31.32
   3   9   8  441.58   32.10
  -3   9  -8  425.20   28.17
  -3  10  15   31.29    9.66
  -3 -10  15   22.14    9.65
  -3  10  15   28.29   11.19
  -3 -10  13   25.84    9.38
  -3  10  13   29.58    9.27
   3  10 -13   44.09   13.32
   3 -10 -13   48.15   12.68
  -3  10  13   32.09    9.91
  -3 -10  13   35.93    9.67
  -3 -10  11   10.75    5.51
   3 -10 -11   10.95    8.12
   3  10 -11   10.31    8.68
  -3 -10  11    2.62    3.85
  -3  10  11    1.57    5.66
  -3 -10  11   -0.81    6.27
  -3  10  11    4.29    5.45
  -3  10  11    1.62    5.21
  -3 -10  11    0.81    4.99
  -3  10   9   28.87    6.85
  -3 -10   9   23.39    5.64
  -3 -10   9   12.05    5.26
   3 -10  -9   24.15    6.16
  -3 -10   9   14.03    4.78
   3  10  -9   22.89    7.61
   3 -10  -9   16.66    4.71
   3 -10  -9    2.81    6.04
  -3 -10   9   21.47    6.35
  -3  10   9   13.50    6.22
  -3  10   9   13.11    3.76
  -3  10   9   11.22    4.80
  -3 -10   9   16.38    5.33
  -3  10   7  209.23   13.07
  -3 -10   7  190.30   12.48
   3  10  -7  212.86   12.70
   3 -10  -7  209.98   12.74
  -3 -10   7  189.72   12.00
  -3  10   7  192.67   12.12
   3 -10  -7  209.30   15.52
  -3 -10   7  192.03   14.54
   3 -10  -7  197.19   11.46
  -3 -10   7  223.08   15.99
  -3  10   7  194.49   15.90
  -3  10   7  196.93   14.75
   3  10  -7  229.51   15.98
  -3  10   7  199.16    8.82
  -3 -10   7  212.63   17.37
  -3 -10   7  188.59   14.77
  -3 -10   5  283.24   12.15
  -3 -10   5  254.52   12.69
  -3  10   5  307.73   12.41
  -3  10   5  306.68   13.83
   3 -10  -5  268.05   17.37
  -3 -10   5  302.95   18.43
  -3  10   5  299.35   15.43
  -3 -10   5  314.76   15.18
  -3 -10   5  288.59   18.18
   3  10  -5  312.25   18.91
  -3  10   5  274.26   17.06
   3  10  -5  289.21   16.43
  -3  10   5  305.61   17.64
   3  10  -5  330.48   18.76
  -3 -10   5  274.75   17.29
   3 -10  -5  287.68   15.11
  -3  10   5  300.52   15.31
   3  10  -5  294.63   12.32
   3 -10  -5  304.67   12.63
  -3  10   3    8.78    2.41
  -3 -10   3    4.35    2.31
   3 -10  -3    4.78    2.03
   3  10  -3   10.00    2.51
  -3  10   3    1.63    3.76
  -3 -10   3    5.02    4.31
  -3 -10   3    6.41    3.09
  -3 -10   3    5.84    4.96
  -3  10   3    3.78    3.45
   3  10  -3    9.64    5.35
   3  10  -3    4.75    4.15
  -3  10   3    2.27    3.51
   3  10  -3    5.99    4.34
  -3  10   3   13.95    5.03
   3 -10  -3   15.46    6.80
   3  10  -3    3.48    3.58
  -3 -10   1  839.75   24.19
  -3  10   1  816.44   23.51
  -3 -10   1  834.70   34.86
  -3  10   1  781.63   30.82
  -3 -10   1  755.08   31.90
   3  10  -1  769.30   24.88
   3 -10  -1  793.90   24.91
   3  10  -1  793.64   30.85
  -3  10   1  804.27   27.41
   3  10  -1  783.36   30.40
   3  10  -1  807.39   30.58
  -3  10   1  866.33   30.86
   3 -10  -1  817.35   23.12
  -3  10   1  824.11   31.97
   3 -10  -1  739.93   35.09
  -3 -10   1  827.26   23.87
  -3  10   1  836.91   23.63
   3  10   1   29.69    5.75
   3 -10   1   31.35    6.31
  -3  10  -1   33.61    7.23
  -3 -10  -1   20.06    4.53
  -3 -10  -1   18.13    6.11
  -3 -10  -1   34.51    6.02
  -3  10  -1   26.34    5.39
   3 -10   1   19.23    4.01
  -3  10  -1   23.85    4.71
   3 -10   1    9.01    3.32
   3  10   1   22.32    6.26
  -3  10  -1   24.89    6.96
   3  10   1   20.21    5.75
  -3  10  -1   20.51    5.12
   3 -10   1   20.75    4.29
   3 -10   1   24.51    8.52
  -3  10  -3   32.16    8.48
  -3 -10  -3   26.31    7.86
  -3 -10  -3   30.70    6.63
  -3  10  -3   34.20    7.27
  -3 -10  -3   14.82    5.08
   3  10   3   30.33    7.11
   3 -10   3   21.98    6.06
  -3  10  -3   29.36    8.20
  -3  10  -3   31.85    5.90
   3  10   3   19.81    5.44
   3 -10   3   35.80    7.36
  -3  10  -5   60.39   10.89
  -3 -10  -5   39.36    7.95
  -3 -10  -5   27.80    8.17
  -3  10  -5   28.99    7.16
   3 -10   5   28.36    7.69
   3  10   5   36.87    8.81
  -3  10  -5   26.51    8.49
   3  10   5   37.22    8.87
   3 -10   5   35.71    8.16
  -3 -10  -7    5.66    6.66
  -3  10  -7    1.70    5.77
   3  10   7   -2.78    6.21
   3 -10   7   -3.52    5.96
  -3 -10  -7    2.68    5.67
  -3  10  -7    8.39    6.29
   3  11 -14  564.95   40.28
   3 -11 -14  482.18   36.20
  -3  11  14  445.60   30.51
  -3  11  14  520.12   33.30
  -3 -11  14  476.28   31.88
  -3 -11  14  480.52   34.14
   3  11 -12  526.77   35.18
   3 -11 -12  498.67   34.06
  -3  11  12  483.69   30.11
  -3  11  12  471.61   24.50
  -3  11  12  517.23   29.76
  -3 -11  12  499.72   28.88
  -3 -11  12  493.61   31.40
  -3 -11  10  838.66   35.55
   3  11 -10  898.70   42.10
   3 -11 -10  923.17   44.02
   3 -11 -10  909.29   32.65
  -3 -11  10  879.54   35.27
  -3 -11  10  838.50   37.98
  -3  11  10  844.74   38.11
  -3  11  10  857.96   34.09
  -3 -11  10  838.88   36.36
  -3  11  10  830.19   34.25
  -3 -11  10  857.56   34.15
  -3  11   8 2026.58   51.85
  -3 -11   8 1962.89   50.78
  -3 -11   8 1980.34   57.71
   3 -11  -8 1976.24   58.82
   3 -11  -8 1947.58   46.72
  -3 -11   8 2011.65   57.84
  -3  11   8 1967.42   59.77
  -3  11   8 1962.45   56.18
   3  11  -8 1958.09   57.95
  -3  11   8 2000.14   44.11
  -3 -11   8 1782.41   62.46
  -3 -11   8 2010.42   57.63
  -3  11   6  558.92   19.46
  -3 -11   6  560.23   19.53
   3 -11  -6  536.15   26.35
  -3 -11   6  553.05   26.72
  -3 -11   6  605.22   28.06
  -3  11   6  652.52   28.89
   3  11  -6  545.33   27.74
  -3  11   6  572.71   26.14
   3  11  -6  540.05   24.64
  -3 -11   6  551.03   27.71
  -3  11   6  569.23   21.25
  -3 -11   6  571.05   21.05
   3  11  -6  595.53   20.08
   3 -11  -6  576.36   19.89
  -3  11   4  998.36   23.72
  -3 -11   4  928.99   24.01
   3 -11  -4  989.54   37.08
  -3  11   4 1008.33   33.44
  -3 -11   4  959.79   37.00
  -3 -11   4 1016.82   29.95
  -3 -11   4  984.51   37.15
   3  11  -4  955.52   36.05
  -3 -11   4  950.52   24.83
  -3  11   4  922.40   23.86
  -3  11   4  990.44   34.93
   3  11  -4  965.54   32.69
   3  11  -4 1002.15   36.12
  -3  11   4  950.84   34.77
   3 -11  -4  954.42   40.78
  -3  11   4  970.20   33.12
  -3 -11   4  961.24   35.11
   3  11  -4  995.14   24.10
   3 -11  -4  994.63   24.10
  -3 -11   2 2225.97   46.52
  -3  11   2 2333.17   46.09
  -3  11   2 2235.45   59.73
  -3 -11   2 2231.39   64.32
  -3 -11   2 2272.72   63.47
   3  11  -2 2242.59   60.88
  -3  11   2 2261.96   56.91
   3  11  -2 2227.59   60.14
   3  11  -2 2267.82   57.93
   3 -11  -2 2243.10   43.25
  -3  11   2 2361.05   60.10
   3 -11  -2 2165.48   67.45
  -3  11   2 2304.17   60.46
  -3 -11   2 2202.53   46.19
   3 -11  -2 2167.76   48.41
   3  11  -2 2137.35   48.08
  -3  11   2 2302.18   45.90
  -3 -11   0 1310.66   35.28
  -3  11   0 1375.19   35.60
  -3  11   0 1428.99   36.08
  -3 -11   0 1344.82   35.91
  -3  11   0 1399.34   45.73
  -3 -11   0 1286.41   48.74
  -3 -11   0 1416.18   37.39
  -3 -11   0 1314.15   46.11
   3  11   0 1382.59   44.25
  -3  11   0 1340.35   39.00
   3  11   0 1331.53   36.78
   3 -11   0 1322.84   36.60
   3  11   0 1239.88   42.01
   3  11   0 1400.52   43.90
  -3  11   0 1302.82   41.62
   3 -11   0 1258.52   35.84
   3 -11   0 1309.96   52.16
  -3  11   0 1359.70   45.62
   3 -11   0 1353.92   35.12
   3  11   2 1156.30   38.00
   3 -11   2 1096.55   36.56
  -3 -11  -2 1102.71   36.76
  -3  11  -2 1167.23   36.93
  -3  11  -2 1084.79   42.08
  -3 -11  -2 1195.54   44.75
  -3 -11  -2 1113.54   35.54
  -3  11  -2 1153.07   35.06
   3  11   2 1127.80   40.49
  -3  11  -2 1090.56   37.19
   3  11   2 1096.53   38.32
  -3  11  -2 1130.54   43.89
   3 -11   2 1083.00   49.81
   3 -11   2 1093.52   36.47
   3  11   4 2323.61   65.55
   3 -11   4 2184.87   64.19
  -3 -11  -4 2220.35   64.43
  -3  11  -4 2325.93   65.37
  -3  11  -4 2271.65   68.87
  -3 -11  -4 2274.12   62.70
  -3 -11  -4 2215.07   70.34
   3  11   4 2270.95   64.74
  -3  11  -4 2246.32   58.74
  -3  11  -4 2245.62   70.48
   3 -11   4 2262.30   65.17
  -3  11  -6  633.37   34.60
  -3 -11  -6  613.00   32.31
   3  11   6  669.29   32.08
  -3  11  -6  656.33   36.83
  -3 -11  -6  680.79   35.39
  -3  11  -6  613.62   33.74
   3  11   6  646.31   34.84
   3 -11   6  652.64   34.68
  -3 -11  -8  725.61   41.39
  -3  11  -8  702.40   40.63
  -3  11  -8  661.22   38.00
   3 -11   8  637.72   38.50
   3  11   8  674.70   40.05
  -3  12  15   -1.51    6.79
  -3 -12  15  -18.40   10.54
  -3  12  13    6.59    6.56
  -3 -12  13   -0.32    7.43
  -3  12  13    1.98    5.62
  -3 -12  13    4.70    6.58
   3  12 -13  -11.72    8.78
   3 -12 -13   -6.05    7.43
   3  12 -11   26.89   10.35
  -3 -12  11   23.07    7.17
   3 -12 -11   11.34    7.82
  -3 -12  11   19.24    5.99
  -3 -12  11   17.55    7.29
  -3  12  11   27.62    8.57
  -3  12  11   21.40    6.72
  -3  12  11    6.02    4.92
  -3 -12  11    9.14    5.60
  -3  12   9   46.79    7.65
  -3 -12   9   38.94    6.18
  -3 -12   9   38.88    7.69
   3 -12  -9   32.09    8.25
   3 -12  -9   51.75    8.07
  -3 -12   9   49.69    8.73
  -3 -12   9   38.13    8.27
  -3  12   9   45.88    9.34
  -3  12   9   36.16    7.65
  -3 -12   9   31.16    8.57
  -3 -12   9   45.94    8.19
  -3  12   7   44.22    5.90
  -3 -12   7   42.12    5.73
  -3  12   7   43.43    5.71
  -3  12   7   32.44    5.83
  -3 -12   7   31.43    5.39
  -3 -12   7   37.45    5.38
   3 -12  -7   43.14    8.77
  -3 -12   7   28.25    7.25
  -3 -12   7   45.34    8.33
  -3  12   7   61.72    9.61
   3  12  -7   34.66    9.09
  -3  12   7   39.84    3.06
   3  12  -7   46.39    8.33
  -3  12   7   48.33    8.45
  -3 -12   7   30.68    7.92
   3  12  -5   11.73    2.77
  -3 -12   5    8.37    2.39
   3 -12  -5   10.91    2.87
  -3  12   5    8.70    2.55
  -3  12   5   11.09    4.69
  -3 -12   5   11.70    5.42
   3 -12  -5   12.75    5.73
  -3 -12   5   12.72    5.28
   3  12  -5   10.91    6.11
  -3  12   5   13.69    5.55
   3  12  -5    7.92    4.34
   3  12  -5    4.22    4.44
  -3  12   5    6.46    4.32
  -3 -12   5    3.39    3.74
  -3 -12   3    5.36    1.85
  -3  12   3    8.12    1.94
   3  12  -3    3.63    1.82
  -3  12   3    6.80    1.72
   3 -12  -3    5.73    1.99
  -3 -12   3    3.40    1.60
  -3 -12   3    6.63    5.71
  -3  12   3   19.01    6.33
  -3 -12   3    4.33    3.19
  -3 -12   3    2.93    5.00
  -3  12   3    8.12    4.78
   3  12  -3    5.87    5.67
   3  12  -3    7.11    4.34
  -3  12   3    5.80    4.30
   3  12  -3    8.16    5.60
  -3  12   3   11.66    5.82
   3 -12  -3   13.82    7.87
  -3 -12   1    4.72    2.59
  -3  12   1    9.86    2.79
  -3 -12   1    3.43    2.34
  -3  12   1    6.39    2.47
  -3  12   1    8.52    5.84
  -3 -12   1    6.26    6.57
  -3 -12   1    0.29    4.31
   3  12  -1    5.79    5.29
  -3  12   1    6.46    3.78
   3 -12  -1    8.68    2.63
   3  12  -1    2.74    3.56
  -3  12   1   -0.57    5.15
   3  12  -1    4.47    4.63
  -3  12   1    4.63    4.25
   3 -12  -1    2.72    6.75
   3  12   1    3.61    4.04
   3 -12   1    9.07    4.38
  -3 -12  -1    5.69    2.59
  -3 -12  -1    1.55    3.23
  -3  12  -1    5.30    3.16
  -3  12  -1    9.66    6.71
  -3 -12  -1    5.28    3.49
  -3 -12  -1    1.86    4.42
  -3  12  -1   13.73    5.01
   3 -12   1    6.55    3.50
   3  12   1   -1.14    5.21
   3  12   1    1.48    4.20
   3  12   1    8.97    5.33
  -3  12  -1    1.90    4.80
  -3  12  -1    4.02    4.54
   3 -12   1    8.50    7.86
   3  12   3    7.68    4.76
   3 -12   3   -2.06    4.19
  -3  12  -3    1.20    5.16
  -3 -12  -3    0.49    5.61
  -3 -12  -3    4.58    4.58
  -3  12  -3   -0.16    3.90
  -3 -12  -3   -0.99    4.03
  -3  12  -3    0.55    3.47
   3 -12   3    1.64    4.81
   3  12   3   -3.53    4.85
  -3  12  -3    2.59    4.20
   3  12   3    4.42    5.45
  -3  12  -3   -4.28    5.95
   3 -12   3    6.26    9.09
  -3 -12  -5    9.14    6.07
  -3  12  -5    7.26    6.32
  -3 -12  -5    2.37    5.15
   3 -12   5    7.04    6.48
   3  12   5    2.91    5.49
  -3  12  -5    2.35    8.18
  -3  12  -5    3.03    6.20
   3  12   5   13.19    7.36
   3 -12   5    4.27    4.73
  -3  12  -7   21.80    9.25
  -3 -12  -7    5.48    5.86
  -3  12  -7   14.12    8.22
   3  12   7   25.10    8.61
   3 -12   7   15.63    7.42
  -3  13  14  798.64   43.03
  -3 -13  12  489.13   29.31
   3 -13 -12  427.72   32.65
  -3  13  12  451.54   30.49
  -3  13  12  426.04   25.04
  -3 -13  12  405.54   29.25
  -3  13  12  489.76   28.64
  -3 -13  12  391.44   25.49
  -3  13  10  416.50   23.04
  -3 -13  10  440.33   23.49
  -3 -13  10  451.50   27.35
   3 -13 -10  435.69   31.17
   3 -13 -10  462.00   24.67
  -3 -13  10  463.48   26.88
  -3 -13  10  425.68   27.07
  -3  13  10  466.80   28.78
  -3  13  10  463.68   26.01
  -3 -13  10  405.47   31.02
  -3 -13  10  445.19   26.13
  -3  13   8 1447.13   40.64
  -3 -13   8 1369.40   39.72
  -3 -13   8 1398.98   49.71
   3 -13  -8 1495.09   52.52
  -3 -13   8 1347.96   49.09
  -3  13   8 1413.22   50.76
  -3  13   8 1396.77   47.79
  -3 -13   8 1272.66   53.03
  -3 -13   8 1388.14   48.39
  -3 -13   6 1008.03   27.94
   3 -13  -6 1076.10   42.31
  -3 -13   6 1106.83   42.89
  -3 -13   6 1058.19   42.07
  -3  13   6 1108.54   41.68
   3  13  -6 1071.06   42.97
   3  13  -6 1113.08   38.27
  -3  13   6 1155.77   41.46
   3  13  -6 1035.71   41.04
  -3 -13   6 1127.85   43.87
  -3 -13   6 1085.31   28.49
  -3  13   6 1092.30   28.46
  -3  13   4 1430.62   28.44
  -3  13   4 1453.15   28.38
  -3 -13   4 1451.56   29.46
  -3 -13   4 1501.90   51.32
  -3 -13   4 1375.55   40.38
   3 -13  -4 1417.82   49.92
  -3  13   4 1360.88   44.35
  -3 -13   4 1434.47   50.23
   3  13  -4 1506.14   49.76
  -3  13   4 1455.03   47.04
   3  13  -4 1438.72   48.82
   3  13  -4 1419.66   43.01
  -3  13   4 1396.78   47.21
   3 -13  -4 1440.79   55.66
  -3 -13   4 1498.28   49.50
  -3  13   4 1459.02   28.28
  -3 -13   4 1440.69   29.64
   3  13  -4 1476.19   28.83
   3 -13  -4 1414.61   28.93
  -3 -13   2 2476.76   48.20
  -3  13   2 2559.47   46.98
  -3  13   2 2495.64   67.71
  -3 -13   2 2474.50   72.93
  -3 -13   2 2574.25   72.44
   3  13  -2 2402.49   68.42
  -3  13   2 2465.39   64.85
  -3  13   2 2490.96   67.28
   3  13  -2 2435.71   68.55
   3  13  -2 2391.65   62.97
   3 -13  -2 2501.93   77.82
  -3  13   2 2396.93   67.18
   3 -13  -2 2524.28   48.68
   3  13  -2 2521.52   48.60
  -3 -13   2 2442.40   47.95
  -3  13   2 2569.70   47.00
  -3  13   0 1157.05   44.04
  -3 -13   0 1130.65   48.27
  -3 -13   0 1145.48   45.62
   3  13   0 1253.56   44.85
  -3  13   0 1230.79   40.08
   3  13   0 1230.54   42.30
  -3  13   0 1226.61   42.41
   3  13   0 1199.00   43.57
   3 -13   0 1193.50   52.28
  -3  13   0 1221.53   45.82
  -3 -13   0 1186.61   32.39
  -3  13   0 1241.72   32.16
   3 -13   2 1097.75   36.32
   3  13   2 1111.20   37.49
  -3  13  -2 1175.70   36.57
  -3 -13  -2 1085.40   35.94
  -3  13  -2 1079.37   44.36
  -3 -13  -2 1080.52   45.40
  -3 -13  -2 1152.20   37.51
  -3  13  -2 1133.58   37.98
   3  13   2 1115.17   43.44
   3  13   2 1109.34   42.62
   3  13   2 1127.72   41.87
  -3  13  -2 1101.92   40.36
  -3  13  -2 1120.41   46.39
   3 -13   2 1062.90   52.50
   3 -13   2 1091.67   36.54
   3  13   4 1618.04   52.57
   3 -13   4 1518.17   50.71
  -3  13  -4 1584.43   50.95
  -3 -13  -4 1559.59   51.09
  -3  13  -4 1611.53   58.39
  -3 -13  -4 1595.06   50.57
  -3 -13  -4 1569.03   58.79
   3  13   4 1604.60   54.69
  -3  13  -4 1588.03   49.69
   3 -13   4 1485.28   67.94
  -3  13  -4 1526.20   58.49
   3 -13   4 1496.05   51.30
  -3  13  -6  530.22   33.37
  -3 -13  -6  514.72   30.63
  -3  13  -6  473.33   29.40
   3  13   6  507.51   29.80
   3 -13   6  487.36   40.46
   3  13   6  509.39   30.83
   3 -13   6  476.31   29.43
  -3 -14  13   -6.71    6.94
  -3  14  13   -4.32    8.16
   3 -14 -13    4.89    7.40
  -3 -14  11   12.79    6.51
   3 -14 -11   24.73   10.02
  -3 -14  11   25.58    8.09
  -3  14  11   24.30    8.53
  -3 -14  11   21.38    7.45
  -3  14  11    8.77    5.59
  -3 -14  11   13.10    7.86
  -3 -14   9    5.32    3.74
  -3 -14   9    8.53    5.38
   3 -14  -9   -1.03    5.35
  -3 -14   9    0.54    4.96
   3 -14  -9    7.78    4.89
  -3  14   9   14.84    7.86
  -3 -14   9    0.41    4.60
  -3  14   9    6.45    6.56
  -3 -14   9   -6.11    7.50
  -3 -14   9    5.38    5.02
  -3  14   7  145.02    9.66
  -3 -14   7  142.22    9.60
  -3 -14   7  150.05   15.88
   3 -14  -7  161.93   16.90
  -3 -14   7  165.66   16.44
   3  14  -7  154.60   16.92
  -3  14   7  167.81   16.60
   3  14  -7  137.66   13.75
  -3  14   7  162.18   15.83
  -3 -14   7  153.84   17.12
  -3 -14   5    5.55    1.80
  -3 -14   5   -0.30    5.97
   3 -14  -5    8.05    6.07
  -3 -14   5   -1.17    5.97
  -3  14   5    4.13    5.03
   3  14  -5   14.13    7.13
   3  14  -5    8.80    5.30
  -3  14   5   -0.46    4.66
   3  14  -5    2.74    5.10
  -3 -14   5   11.16    6.50
  -3 -14   3   66.51   11.50
  -3  14   3   64.75    9.24
   3 -14  -3   80.67   11.91
  -3 -14   3   50.48    9.48
   3  14  -3   72.93   11.23
  -3  14   3   55.52    8.90
   3  14  -3   66.95    8.75
   3  14  -3   76.68   11.33
  -3  14   3   60.88    9.43
   3 -14  -3   75.10   13.00
  -3 -14   1  246.89   10.23
  -3  14   1  252.88   19.46
  -3 -14   1  268.05   22.65
  -3 -14   1  297.73   22.46
   3  14  -1  234.74   19.18
  -3  14   1  279.01   18.36
  -3  14   1  264.63   19.20
   3  14  -1  251.43   19.37
   3  14  -1  240.86   16.55
  -3  14   1  269.33   20.37
   3 -14  -1  245.43   22.94
   3 -14  -1  247.11   10.99
   3  14   1   57.50    7.50
   3 -14   1   54.40    7.20
  -3 -14  -1   55.58    6.65
  -3  14  -1   62.88   10.89
  -3 -14  -1   55.07    7.64
  -3 -14  -1   76.35   12.18
   3  14   1   59.15   10.63
  -3  14  -1   56.49    8.46
   3 -14   1   54.10    6.65
   3  14   1   57.15    9.79
   3  14   1   48.01    9.39
  -3  14  -1   59.04   11.03
  -3  14  -1   55.53    9.29
   3 -14   1   49.97   12.39
   3 -14   3   11.52    5.47
  -3 -14  -3    3.33    4.93
  -3  14  -3   -2.28    6.21
  -3 -14  -3    3.82    5.38
  -3 -14  -3    6.80    4.99
   3 -14   3   -1.83    4.40
   3  14   3   10.66    5.77
   3  14   3    8.10    6.79
  -3  14  -3   19.84    9.17
   3  14   3    5.16    5.41
  -3  14  -3   11.64    5.87
   3 -14   3    8.98    8.41
   3  14   5   -4.33    6.49
  -3 -14  -5   -5.27    5.91
  -3  14  -5   15.91    9.26
   3 -14   5    0.05    8.80
  -3 -15  12  607.25   34.92
   3 -15 -12  521.60   37.50
  -3  15  12  573.09   36.05
  -3 -15  12  503.23   40.20
  -3 -15  12  532.93   34.33
   3 -15 -10  669.67   40.52
   3 -15 -10  714.20   34.05
  -3 -15  10  699.02   36.22
  -3 -15  10  647.12   34.78
  -3  15  10  655.50   36.62
  -3  15  10  656.91   34.03
  -3 -15  10  605.88   40.66
   3 -15 -10  701.74   39.63
  -3 -15  10  642.57   35.38
  -3 -15   8 1152.73   48.04
   3 -15  -8 1283.81   51.70
   3 -15  -8 1216.17   46.89
  -3 -15   8 1150.54   48.19
  -3 -15   8 1186.51   44.93
  -3  15   8 1252.22   49.69
  -3  15   8 1191.01   46.62
  -3 -15   8 1205.40   52.98
  -3 -15   8 1212.08   47.07
  -3 -15   6 1091.38   45.80
  -3  15   6 1008.56   42.54
   3  15  -6 1073.72   45.41
   3  15  -6 1018.52   42.78
  -3  15   6 1043.53   42.85
   3  15  -6 1122.70   39.31
  -3 -15   6 1077.14   46.13
  -3 -15   6 1066.92   45.17
   3 -15  -6 1063.82   45.68
  -3 -15   4  891.35   40.57
   3  15  -4  921.40   40.19
  -3  15   4  823.63   36.42
   3  15  -4  843.29   38.16
  -3  15   4  875.65   37.78
   3  15  -4  902.11   32.81
  -3 -15   4  809.89   37.85
   3 -15  -4  877.94   40.60
  -3  15   4  840.85   35.58
  -3 -15   4  832.44   39.72
  -3 -15   2 1298.62   50.92
   3  15  -2 1302.71   48.85
  -3  15   2 1316.29   45.78
  -3  15   2 1261.56   46.86
   3  15  -2 1308.02   48.07
   3  15  -2 1245.11   41.02
   3 -15  -2 1298.30   56.30
  -3  15   2 1305.11   47.45
  -3 -15   2 1268.79   51.43
   3 -15  -2 1237.55   50.70
  -3 -15   0  408.40   27.45
  -3  15   0  419.12   23.64
   3  15   0  410.81   26.46
  -3  15   0  418.01   25.09
   3  15   0  428.02   26.23
   3  15   0  367.23   22.27
   3 -15   0  400.05   31.23
  -3  15   0  444.08   26.94
  -3 -15   0  437.12   30.62
  -3 -15  -2  739.55   38.70
  -3  15  -2  708.31   31.52
   3  15   2  698.74   35.50
   3  15   2  732.46   34.39
   3  15   2  672.12   33.84
  -3  15  -2  713.14   33.98
   3 -15   2  704.49   44.61
  -3  15  -2  714.68   37.02
  -3 -15  -4  612.28   36.92
   3  15   4  638.02   35.28
   3 -15   4  554.01   41.72
  -3  15  -4  643.87   36.71
  -3  15  -4  679.59   32.77
   3  15   6  275.00   24.52
  -3  15  -6  295.78   26.11
  -3 -16  11   -8.66    6.62
  -3  16  11    9.34    8.71
  -3 -16  11    7.28    7.42
  -3 -16  11   -7.10    5.65
   3 -16 -11   -6.49    9.99
  -3  16  11  -10.18    7.85
  -3 -16  11    0.78    7.29
   3 -16  -9   32.09   10.74
  -3 -16   9   41.14   10.33
  -3  16   9   41.41   11.34
  -3 -16   9   45.66    9.86
  -3 -16   9   32.73    9.36
   3 -16  -9   45.34    9.46
  -3  16   9   47.01   10.86
  -3 -16   9   71.30   11.54
  -3 -16   9   41.18   11.33
   3 -16  -7   44.28   10.31
  -3 -16   7   73.89   13.35
  -3 -16   7   67.42   12.41
   3  16  -7   54.46   11.99
  -3  16   7   77.84   13.06
  -3  16   7   77.27   12.68
  -3 -16   7   38.54    9.80
  -3 -16   5   -4.00    6.33
   3 -16  -5    9.96    7.48
  -3 -16   5   -7.98    7.52
  -3  16   5    7.03    6.61
   3  16  -5   -3.61    6.01
   3  16  -5    6.44    4.41
   3  16  -5   -6.23    6.78
  -3  16   5   -1.24    5.55
  -3 -16   5   -1.90    5.61
  -3  16   3   23.38    7.49
  -3 -16   3   36.55   11.41
   3 -16  -3   31.93    9.93
  -3 -16   3    6.75    6.38
   3  16  -3   17.72    7.15
  -3  16   3    7.72    5.83
   3  16  -3   19.55    6.13
  -3  16   3   22.01    8.53
   3  16  -3    8.11    5.69
   3 -16  -3    7.96    6.65
  -3  16   1   10.11    7.85
  -3 -16   1    9.15    6.99
  -3 -16   1   -3.66    5.82
   3  16  -1   14.80    8.13
  -3  16   1    3.34    5.02
   3  16  -1    5.14    5.16
   3  16  -1    2.44    6.07
  -3  16   1    2.28    6.37
   3 -16  -1   10.90    7.92
  -3  16  -1   15.76    7.65
  -3 -16  -1   -0.40    7.94
  -3  16  -1   14.25    6.00
   3  16   1   28.38    9.12
  -3 -16  -1   -0.72    7.06
  -3  16  -1   30.78    8.93
   3  16   1   14.70    7.28
   3 -16   1   32.39   12.08
  -3  16  -3   11.04    7.28
   3  16   3   34.83   11.49
  -3 -16  -3   19.53   10.69
   3  16   3   17.47    8.32
  -3  16  -3   11.85    5.91
   3 -16   3   11.76    8.16
  -3  16  -5   31.95   10.59
   3  16   5   40.62   11.24
  -3 -17  12  702.60   49.60
  -3 -17  12  654.14   38.83
   3 -17 -10  412.19   33.12
  -3 -17  10  491.39   32.23
  -3 -17  10  446.17   29.27
  -3  17  10  484.54   33.04
  -3  17  10  498.18   31.27
  -3 -17  10  437.62   35.40
   3 -17 -10  481.40   35.04
  -3 -17  10  508.34   33.23
  -3 -17   8  969.30   46.60
   3 -17  -8 1049.48   50.20
   3 -17  -8  993.91   44.62
  -3 -17   8 1000.30   47.11
  -3 -17   8  985.77   41.46
  -3  17   8 1007.74   46.76
   3  17  -8  978.25   48.68
  -3  17   8 1055.19   46.01
  -3 -17   8 1013.59   51.22
  -3 -17   8 1033.96   45.42
  -3 -17   6  377.62   27.95
  -3  17   6  413.31   27.82
   3  17  -6  443.95   30.38
   3  17  -6  423.26   28.66
  -3  17   6  411.22   27.69
   3  17  -6  399.75   23.06
  -3 -17   6  415.49   29.69
   3 -17  -6  437.07   30.58
  -3 -17   6  418.10   29.44
   3  17  -4  735.00   29.95
   3  17  -4  778.25   38.63
  -3  17   4  773.38   38.00
   3  17  -4  710.08   37.68
  -3  17   4  656.96   34.65
  -3 -17   4  734.51   39.38
   3 -17  -4  727.90   39.63
  -3 -17   4  690.00   38.69
  -3 -17   2  922.11   44.96
   3  17  -2  905.43   42.96
  -3  17   2  904.07   39.91
  -3  17   2  887.54   40.87
   3  17  -2  914.07   42.24
   3 -17  -2  925.91   49.96
  -3  17   2  942.05   41.85
   3 -17  -2  983.25   46.61
  -3 -17   2  905.46   45.91
  -3 -17   0  445.17   30.81
  -3  17   0  467.71   27.10
   3  17   0  490.71   30.98
   3  17   0  469.54   29.72
  -3  17   0  467.95   28.77
   3 -17   0  415.77   34.27
  -3  17   0  478.46   30.41
  -3 -17   0  466.58   33.59
  -3 -17  -2  399.63   30.11
  -3  17  -2  417.33   25.83
   3  17   2  479.67   31.06
   3  17   2  407.87   28.04
  -3  17  -2  390.99   26.82
   3 -17   2  461.12   37.88
  -3  17  -2  427.55   30.00
  -3 -17  -4  486.27   34.30
   3  17   4  503.93   33.42
  -3  17  -4  523.48   31.08
   3 -17   4  495.24   42.49
  -3  17  -4  464.21   33.08
  -3 -18  11   -7.03    7.47
   3 -18 -11   -9.54    9.55
  -3 -18  11   -3.71    6.60
  -3  18  11   -3.68    6.80
  -3 -18  11   -1.75    9.11
  -3 -18   9  143.39   19.06
   3 -18  -9  114.88   17.59
  -3  18   9  111.14   16.42
  -3 -18   9  103.15   13.68
  -3 -18   9  146.40   18.69
   3 -18  -9  120.39   16.44
  -3  18   9  109.59   15.51
  -3 -18   9  114.51   18.27
   3 -18  -7   55.18   12.74
  -3 -18   7   77.38   14.63
   3  18  -7   38.95   11.01
  -3  18   7   77.79   13.99
  -3 -18   7   73.44   13.59
   3 -18  -7   81.80   13.72
  -3  18   7   61.78   12.18
  -3 -18   7   61.24   13.22
  -3 -18   5   35.62   11.28
   3 -18  -5   20.75    9.56
   3  18  -5   14.62    8.20
  -3  18   5   19.05    7.19
  -3 -18   5    6.09    7.49
   3  18  -5   18.66    8.34
  -3  18   5   18.74    8.64
  -3 -18   5   19.07    9.33
   3  18  -3  191.40   19.79
  -3  18   3  158.85   17.44
  -3 -18   3  214.88   22.20
   3  18  -3  165.58   18.02
   3 -18  -3  168.77   21.97
  -3  18   3  172.23   18.32
  -3 -18   3  176.05   20.08
   3 -18  -3  168.12   19.93
  -3  18   1   18.13    8.20
   3 -18  -1   -6.01    8.09
  -3 -18   1    1.71    7.52
   3  18  -1    3.92    6.95
  -3  18   1   -2.65    5.58
  -3 -18   1   11.40    8.54
   3  18  -1   -3.30    6.29
  -3  18   1   -4.26    6.26
   3 -18  -1   11.50   11.56
  -3  18  -1  114.79   16.34
  -3 -18  -1  145.13   20.87
  -3  18  -1   93.94   13.07
   3  18   1  125.60   16.91
  -3 -18  -1  122.50   17.51
   3  18   1  120.16   16.19
  -3  18  -1  116.67   15.47
   3 -18   1  109.91   19.69
  -3  18  -3   45.26   11.69
  -3 -18  -3   20.58    9.27
   3  18   3   43.27   11.24
   3  18   3   15.61    7.23
  -3  18  -3   15.02    7.71
   3 -18   3    7.13   10.97
   3 -19 -10  220.47   25.15
  -3 -19  10  231.91   23.81
  -3  19  10  280.04   24.52
  -3 -19  10  242.04   24.74
   3 -19 -10  255.11   27.55
  -3 -19  10  204.38   25.64
  -3 -19   8  436.17   32.80
   3 -19  -8  439.00   34.35
  -3 -19   8  384.89   30.88
   3 -19  -8  439.12   31.58
  -3  19   8  389.56   30.79
   3  19  -8  484.39   35.28
  -3  19   8  545.28   34.60
  -3 -19   8  474.84   35.85
  -3 -19   8  451.25   31.08
  -3 -19   6  821.88   44.32
  -3  19   6  794.42   42.02
   3  19  -6  694.94   41.03
  -3  19   6  790.07   41.68
  -3 -19   6  746.00   43.11
  -3 -19   6  802.17   44.61
   3 -19  -6  751.73   43.80
  -3  19   4  372.62   28.15
   3  19  -4  358.35   27.76
   3  19  -4  389.06   29.54
  -3  19   4  331.43   26.17
  -3 -19   4  389.59   30.39
   3 -19  -4  371.54   30.67
  -3 -19   4  334.29   28.61
  -3 -19   2  556.21   36.84
   3  19  -2  513.48   34.08
  -3  19   2  588.38   33.68
   3  19  -2  539.13   34.62
  -3  19   2  602.21   35.44
   3 -19  -2  563.57   40.92
   3 -19  -2  560.36   37.16
  -3 -19   2  574.29   38.66
  -3 -19   0  435.01   33.02
  -3  19   0  485.69   30.11
   3  19   0  400.26   30.64
   3  19   0  447.17   31.11
  -3  19   0  468.85   31.23
   3 -19   0  472.85   39.48
  -3  19   0  437.17   31.09
   3 -19   0  386.52   32.22
  -3 -19   0  476.14   36.05
   3  19   2  788.53   42.16
  -3  19  -2  759.03   40.66
   3  19   2  762.25   42.90
   3 -19   2  780.83   52.74
  -3 -19  -2  708.25   43.39
  -3 -19  -4  375.61   32.43
   3 -20  -9   36.41   13.27
  -3 -20   9    9.71    9.71
   3 -20  -9   31.68   10.62
   3 -20  -7   14.11    9.15
  -3 -20   7   14.05    8.09
   3 -20  -7   32.80   12.63
  -3 -20   7   -4.27    7.80
   3  20  -7    6.09    7.44
  -3  20   7   -2.35    6.76
  -3 -20   7    6.06    8.38
   3  20  -5   58.56   13.07
  -3  20   5   45.79   11.54
  -3 -20   5   49.62   13.13
   3 -20  -5   63.65   15.27
   3  20  -5   45.51   11.77
  -3  20   5   55.61   12.37
  -3 -20   5   63.60   14.26
  -3 -20   5   48.11   13.54
   3  20  -3    4.80    8.79
  -3  20   3    9.88    7.32
  -3 -20   3   11.56    9.20
   3 -20  -3    5.42    7.68
   3  20  -3   -5.61    7.50
  -3  20   3    5.42    6.84
  -3 -20   3    1.34    7.52
  -3 -20   1    0.83    7.86
  -3 -20   1   -6.28    6.73
   3 -20  -1    3.77    8.70
   3  20  -1    1.85    8.57
  -3  20   1   -0.97    5.65
  -3  20   1   10.98    7.78
   3  20  -1   11.47    9.96
   3 -20  -1   18.31   12.59
  -3  20  -1    8.75    7.32
  -3 -20  -1    9.66    9.62
   3  20   1    7.67    8.22
  -3  20  -1    4.89    7.03
   3  20   3  108.22   16.59
  -3  20  -3  133.98   18.07
   3 -21  -8   51.97   12.63
  -3 -21   8   59.57   14.73
   3  21  -6  133.54   19.29
   3 -21  -6  167.44   22.63
   3 -21  -6  133.43   19.40
  -3 -21   6  168.94   22.11
   3 -21  -4  538.08   39.29
   3  21  -4  555.41   38.02
  -3  21   4  570.75   36.51
   3 -21  -2  253.88   30.44
  -3  21   2  216.99   22.40
  -3  21   0  463.00   31.75
  -3  22   1   54.88   12.90
  -4   0  16  762.29   43.06
  -4   0  16  734.51   41.65
   4   0 -16  731.54   45.44
  -4   0  14 1841.43   64.02
   4   0 -14 1950.49   69.79
   4   0 -12 2768.65   74.77
   4   0 -12 2793.56   79.16
  -4   0  12 2601.05   51.52
  -4   0  12 2555.97   56.48
  -4   0  12 2779.70   74.83
  -4   0  10 1512.89   31.50
   4   0 -10 1455.86   48.35
  -4   0  10 1513.20   46.02
  -4   0  10 1435.48   43.92
   4   0 -10 1517.21   46.54
   4   0  -8 3323.15   64.78
   4   0  -8 3377.65   76.79
   4   0  -8 3345.49   73.63
  -4   0   8 3532.89   74.14
   4   0  -8 3379.86   75.23
   4   0  -8 3456.09   81.71
  -4   0   8 3451.98   78.27
   4   0  -6 7377.25  134.00
  -4   0   6 7254.41  133.97
   4   0  -6 7018.40  143.58
  -4   0   6 7017.97  142.11
   4   0  -6 7276.32  135.79
  -4   0   6 7478.77  136.17
   4   0  -4  359.89   15.87
   4   0  -4  392.68   11.87
  -4   0   4  358.52   19.13
   4   0  -4  363.12   18.60
  -4   0   4  384.07   16.83
   4   0  -2  628.88   20.05
   4   0  -2  670.97   23.83
  -4   0   2  662.78   17.65
  -4   0   2  629.82   22.65
  -4   0   2  677.73   24.31
   4   0  -2  643.23   21.99
  -4   0   0 2641.54   61.19
  -4   0   0 2517.86   57.13
   4   0   0 2580.67   58.39
  -4   0   0 2580.75   55.31
   4   0   0 2570.47   60.87
   4   0   2  765.16   31.92
  -4   0  -2  770.67   30.48
  -4   0  -2  759.62   31.86
  -4   0  -2  700.08   16.73
  -4   0  -2  764.07   27.84
  -4   0  -2  734.00   23.48
  -4   0  -4 1053.11   37.91
  -4   0  -4 1119.93   44.63
  -4   0  -4 1016.73   41.38
  -4   0  -4 1097.30   36.90
   4   0   4 1032.56   42.69
  -4   0  -6  828.80   41.36
  -4   0  -6  845.72   34.57
  -4   0  -6  858.64   33.24
  -4   0  -6  815.12   42.44
   4   0   6  843.90   42.93
  -4   0  -8   71.32   14.22
   4   0   8   68.71   14.30
  -4   0  -8   65.31   13.62
  -4   1  15    5.79    7.10
  -4  -1  15   -1.57    6.36
   4   1 -15   11.72    8.87
   4  -1 -15   10.00    8.14
  -4   1  15   -3.12    6.47
  -4  -1  15    3.89    7.17
   4   1 -13  120.43   16.34
   4  -1 -13  161.62   18.16
  -4   1  13  126.13   14.74
  -4  -1  13  179.48   18.14
  -4   1  13  153.95   16.25
  -4  -1  13  177.26   17.37
   4  -1 -11   20.19    6.81
   4   1 -11   15.34    5.46
  -4   1  11   16.06    2.21
  -4  -1  11   14.74    2.95
   4   1 -11   17.70    6.15
   4  -1 -11   26.02    8.19
  -4   1  11   10.81    5.77
  -4  -1  11   15.49    6.47
  -4   1  11   15.27    3.06
  -4  -1  11   14.54    3.60
  -4  -1  11   13.05    5.12
  -4   1   9  213.81    7.55
  -4  -1   9  213.80    9.45
   4  -1  -9  209.31    7.61
   4   1  -9  223.65   15.49
   4  -1  -9  216.01   15.77
  -4   1   9  222.79   14.48
   4   1  -9  208.34   14.47
   4   1  -9  206.47   16.62
   4  -1  -9  236.04   16.33
  -4  -1   9  240.86   15.76
  -4   1   9  221.43   14.75
   4   1  -9  225.84   15.06
   4  -1  -9  218.37   15.02
   4  -1  -7   12.41    4.29
   4   1  -7   17.64    4.77
  -4   1   7   12.27    3.68
  -4  -1   7   21.10    4.70
   4   1  -7   11.50    3.01
   4   1  -7   10.48    4.28
   4  -1  -7    4.33    3.94
  -4  -1   7    5.11    4.65
   4  -1  -7   21.48    5.89
   4   1  -7   15.07    5.29
  -4   1   7   16.61    5.12
   4  -1  -7   11.42    4.87
   4   1  -7   11.00    4.14
  -4   1   7    6.35    3.96
  -4  -1   7    6.15    3.84
   4  -1  -5   72.20    8.91
  -4  -1   5   78.72    9.25
   4   1  -5   73.86    8.69
  -4   1   5   71.75    8.88
   4   1  -5   89.28    8.26
  -4  -1   5   86.52    7.83
   4   1  -5   70.58    7.38
   4  -1  -5   87.96    7.27
  -4   1   5   80.46    7.17
  -4  -1   5   77.00    3.99
  -4   1   5   80.79    5.96
  -4  -1   5   76.50    7.70
  -4   1   5   77.90    7.64
   4  -1  -5   66.94    7.46
   4   1  -5   64.72    7.15
   4   1  -3  356.93   16.16
   4  -1  -3  341.09   15.92
  -4  -1   3  352.29   14.04
  -4   1   3  357.81   17.70
   4  -1  -3  370.86   17.70
  -4  -1   3  344.85   16.87
   4   1  -3  345.16   16.07
  -4  -1   3  345.01   15.70
  -4   1   3  332.43   15.42
  -4  -1   1   26.15    4.38
   4  -1  -1   40.88    6.03
   4   1  -1   35.13    4.97
  -4   1   1   27.65    5.51
  -4  -1   1   42.48    6.67
  -4   1   1   33.10    2.34
  -4  -1   1   28.70    2.98
  -4   1   1   29.86    5.38
  -4  -1   1   25.96    4.74
   4   1  -1   39.06    6.01
   4  -1  -1   25.39    5.71
  -4  -1   1   40.28    5.97
  -4   1   1   37.82    6.12
   4  -1   1  173.76   13.77
   4   1   1  216.96   15.29
  -4   1  -1  180.55   13.44
  -4  -1  -1  196.73   13.28
  -4  -1  -1  194.11   14.84
  -4   1  -1  195.52   14.61
   4   1   1  182.53    7.49
  -4   1  -1  193.61   13.24
  -4   1  -1  184.42   10.78
  -4  -1  -1  171.83   10.69
   4   1   3   -0.01    5.61
   4  -1   3   -1.20    4.53
  -4   1  -3   14.62    5.63
  -4  -1  -3    8.70    5.22
  -4   1  -3   -0.97    4.57
  -4  -1  -3    9.91    5.91
  -4  -1  -3    2.43    5.01
  -4   1  -3    3.09    4.44
   4   1   3    8.95    1.92
  -4   1  -3    2.02    3.67
  -4  -1  -3    3.62    3.91
  -4   1  -3    2.89    1.74
  -4  -1  -3    7.39    3.03
  -4   1  -5   60.78   11.60
  -4  -1  -5   42.99    9.09
  -4   1  -5   50.41    8.40
  -4  -1  -5   41.78    7.55
  -4  -1  -5   48.00   10.05
  -4   1  -5   48.96    9.99
  -4  -1  -5   37.32    6.66
  -4   1  -5   57.04    8.56
   4   1   5   41.32    9.99
   4  -1   5   54.57   10.48
   4   1   7    9.49    7.08
   4  -1   7    6.57    7.10
  -4   1  -7   32.95   12.48
  -4  -1  -7    7.14    7.30
  -4  -1  -7   31.18   11.48
  -4   1  -7    2.64    7.14
  -4  -2  16  600.39   38.70
  -4   2  16  625.52   39.12
  -4   2  16  667.62   39.81
  -4  -2  16  635.36   38.76
   4   2 -16  686.63   44.10
   4  -2 -16  656.89   43.24
  -4  -2  14  852.63   41.53
  -4   2  14  790.39   39.63
  -4   2  14  821.00   39.82
  -4  -2  14  808.04   39.49
   4   2 -14  862.06   44.51
   4  -2 -14  813.46   43.66
   4   2 -12 1765.88   57.31
   4  -2 -12 1841.95   58.10
   4   2 -12 1752.21   60.33
   4  -2 -12 1812.47   61.40
  -4   2  12 1791.66   37.65
  -4  -2  12 1782.07   41.71
  -4  -2  12 1803.51   58.25
  -4   2  12 1737.65   37.17
  -4   2  12 1887.65   57.76
  -4  -2  12 1773.53   49.84
  -4  -2  10 1226.35   30.33
   4   2 -10 1223.89   42.37
   4  -2 -10 1198.85   43.62
  -4   2  10 1212.35   39.31
  -4  -2  10 1197.02   40.82
   4   2 -10 1182.94   40.17
   4  -2 -10 1247.90   41.13
  -4  -2  10 1150.57   38.90
   4   2 -10 1112.08   42.15
   4  -2  -8 2345.61   60.60
  -4  -2   8 2398.75   56.63
   4   2  -8 2361.96   48.59
   4   2  -8 2305.55   57.07
  -4  -2   8 2395.24   43.15
   4  -2  -8 2305.87   54.28
  -4   2   8 2407.65   54.30
   4   2  -8 2299.62   57.03
  -4   2   8 2280.06   58.02
   4  -2  -8 2452.94   60.76
  -4  -2   8 2077.06   60.06
   4   2  -8 2204.02   61.92
   4   2  -8 2350.31   57.22
   4  -2  -8 2349.31   57.33
   4  -2  -6 3932.21   81.12
   4   2  -6 4003.28   81.36
  -4   2   6 4040.31   81.83
  -4  -2   6 3984.99   81.81
   4   2  -6 3930.22   72.72
   4   2  -6 3932.33   79.56
   4   2  -6 3874.12   77.06
  -4  -2   6 4157.17   82.35
   4   2  -6 3891.78   81.33
   4  -2  -6 3845.21   77.16
  -4   2   6 4086.18   77.98
  -4   2   6 3992.62   79.22
   4  -2  -6 4111.39   85.80
  -4  -2   6 3837.62   88.46
   4   2  -6 3699.33   86.75
  -4   2   6 3950.86   84.70
   4  -2  -4 3943.14   82.71
  -4  -2   4 3873.73   82.24
   4   2  -4 3919.97   81.75
  -4   2   4 3734.63   80.93
   4   2  -4 3753.24   81.76
  -4  -2   4 3903.37   79.33
  -4   2   4 3781.55   78.82
  -4  -2   4 3789.37   78.31
   4   2  -4 3839.46   79.98
   4  -2  -4 3824.06   75.63
  -4  -2   4 3964.22   80.19
  -4   2   4 3905.70   75.93
   4  -2  -4 3879.35   75.36
   4  -2  -4 3812.03   79.08
   4   2  -4 3788.97   79.02
   4  -2  -2 4073.39   81.51
   4   2  -2 4040.24   74.39
   4   2  -2 3867.94   88.22
   4  -2  -2 4036.27   82.74
  -4  -2   2 3969.26   75.36
   4   2  -2 4034.93   82.95
   4   2  -2 4011.84   77.05
  -4   2   2 3938.87   81.26
   4  -2  -2 3955.71   83.55
  -4  -2   2 4082.74   82.44
  -4  -2   2 3929.11   81.92
  -4   2   2 4195.48   82.75
   4   2   0 3374.24   76.98
   4  -2   0 3448.41   77.15
  -4  -2   0 3380.41   77.03
  -4   2   0 3519.06   77.64
  -4   2   0 3448.61   77.15
  -4  -2   0 3464.39   71.66
   4   2   0 3341.67   72.25
   4   2   0 3294.36   81.12
   4   2   0 3488.30   65.22
  -4  -2   0 3336.55   64.04
  -4   2   0 3451.61   75.72
  -4   2   0 3278.00   67.50
  -4  -2   0 3453.77   71.77
   4   2   2  618.48   28.24
   4  -2   2  607.40   28.00
  -4  -2  -2  578.98   27.72
  -4   2  -2  644.33   28.78
  -4   2  -2  630.89   28.46
  -4   2  -2  606.14   26.56
  -4  -2  -2  640.17   26.60
   4   2   2  625.65   17.68
  -4   2  -2  624.64   15.74
  -4  -2  -2  601.17   16.06
  -4   2  -2  579.71   25.29
  -4  -2  -2  632.24   22.38
  -4   2  -2  548.59   14.19
   4   2   4 1952.52   62.70
   4  -2   4 1920.68   62.15
  -4  -2  -4 1979.08   55.69
  -4   2  -4 1961.30   62.67
  -4   2  -4 1978.11   56.99
  -4  -2  -4 1887.24   59.01
  -4   2  -4 1961.59   62.79
  -4  -2  -4 1916.44   62.41
   4   2   4 1953.44   41.31
  -4  -2  -4 1973.55   52.07
  -4   2  -4 2026.51   56.28
  -4  -2  -4 1939.44   47.83
  -4  -2  -6  857.64   34.20
  -4   2  -6  861.04   35.83
  -4   2  -6  877.39   43.54
  -4  -2  -6  819.22   42.28
  -4   2  -6  831.21   42.36
  -4   2  -6  842.88   34.89
   4   2   6  885.88   43.88
   4  -2   6  862.97   43.34
  -4  -2  -6  865.75   41.50
  -4  -2  -8  469.13   33.68
  -4   2  -8  390.32   31.91
  -4   3  15   52.45   11.26
  -4  -3  15   51.38   11.73
   4   3 -15   65.23   15.34
   4  -3 -15   49.20   12.22
  -4   3  15   53.79   12.08
  -4  -3  15   26.31    8.78
  -4  -3  13   29.04    6.27
   4   3 -13    2.81    5.93
   4  -3 -13   34.22    9.46
  -4   3  13   28.04    7.87
  -4  -3  13   21.22    8.04
  -4   3  13   27.99    5.28
  -4   3  13   24.17    8.39
  -4  -3  13   22.71    8.23
   4   3 -11   16.10    6.46
   4  -3 -11   16.28    6.29
  -4  -3  11   18.25    3.41
  -4   3  11   22.87    2.96
   4   3 -11   24.71    7.72
   4  -3 -11    9.06    5.58
  -4   3  11   22.12    6.35
  -4  -3  11   13.94    5.53
  -4   3  11   21.32    2.49
  -4   3  11   25.95    5.02
  -4  -3  11   19.32    5.76
  -4  -3   9  682.40   17.63
  -4  -3   9  637.92   20.89
   4  -3  -9  688.13   30.13
   4   3  -9  690.85   28.08
  -4  -3   9  613.01   20.33
  -4   3   9  673.44   25.40
   4   3  -9  663.22   27.23
   4   3  -9  674.20   26.98
   4  -3  -9  647.46   26.52
  -4  -3   9  622.69   28.36
   4   3  -9  606.67   27.99
   4  -3  -7  324.05   10.54
  -4  -3   7  308.06   11.22
  -4  -3   7  307.95   14.33
   4   3  -7  306.07   13.59
   4   3  -7  326.24   15.08
  -4  -3   7  316.78   14.34
  -4  -3   7  301.99   16.10
  -4   3   7  310.88   13.66
   4   3  -7  330.07   16.80
   4  -3  -7  315.87   13.73
   4   3  -7  272.27   17.37
  -4  -3   7  296.00   18.62
   4  -3  -7  310.92   16.99
  -4   3   7  316.70   17.14
   4   3  -7  320.54   15.73
  -4   3   7  295.68   15.40
  -4  -3   7  307.35   15.75
   4  -3  -7  310.79   15.60
   4   3  -5  170.78   11.49
   4  -3  -5  172.50   11.00
  -4   3   5  172.33   11.08
  -4  -3   5  182.97   11.40
   4   3  -5  185.46   10.28
   4   3  -5  187.85   11.79
   4   3  -5  168.00    7.35
  -4  -3   5  165.55   11.30
  -4  -3   5  178.59   12.10
  -4  -3   5  172.28   11.83
  -4   3   5  170.99    9.30
   4  -3  -5  168.64    9.22
   4   3  -5  202.29   12.48
  -4   3   5  194.36   11.51
   4  -3  -5  174.35   10.77
   4  -3  -5  182.08   12.18
  -4  -3   5  173.46   12.58
  -4   3   5  200.04   12.59
   4   3  -5  198.06   12.93
  -4  -3   3  806.46   26.91
   4  -3  -3  840.42   27.16
  -4   3   3  799.78   25.48
   4   3  -3  790.46   28.66
   4   3  -3  802.63   24.54
  -4  -3   3  785.06   23.51
   4   3  -3  804.19   26.17
   4  -3  -3  817.86   26.11
   4   3  -3  725.50   26.31
   4  -3  -3  808.21   25.99
  -4   3   3  800.03   25.37
  -4  -3   3  820.01   25.79
   4   3  -1   14.31    4.97
   4  -3  -1    6.53    4.27
  -4  -3   1    7.94    3.98
  -4   3   1   13.98    3.68
  -4   3   1   11.30    4.28
   4  -3  -1   12.50    4.00
  -4  -3   1   12.24    2.88
   4   3  -1    7.83    4.11
   4   3  -1    5.63    2.21
  -4  -3   1   15.71    4.91
  -4   3   1   14.01    4.07
   4   3  -1   10.51    2.77
  -4   3   1    6.19    1.16
  -4   3   1   10.26    3.27
  -4  -3   1   19.38    3.64
  -4   3   1   17.85    4.83
  -4   3   1   15.48    3.54
   4  -3  -1    9.41    3.55
   4   3   1    4.25    5.51
   4  -3   1    4.20    4.48
  -4  -3  -1   -7.79    4.30
  -4   3  -1   -1.84    3.64
  -4   3  -1    1.78    3.88
  -4   3  -1    5.13    5.05
  -4  -3  -1    8.49    4.19
   4   3   1    5.08    3.26
  -4  -3  -1    3.55    2.39
   4   3   1    8.34    2.92
  -4   3  -1    2.95    1.84
  -4  -3  -1    5.94    2.52
  -4   3  -1   11.04    4.85
  -4   3  -1    6.96    1.88
  -4  -3  -3   36.00    8.42
  -4   3  -3   42.96    8.67
  -4   3  -3   41.88    7.60
  -4   3  -3   46.22    8.85
  -4  -3  -3   51.57    8.52
   4   3   3   42.12    5.01
  -4   3  -3   47.74    3.10
  -4   3  -3   34.39    7.05
  -4  -3  -3   42.35    3.36
   4   3   3   41.22    9.20
   4  -3   3   47.49    9.49
  -4  -3  -5   17.71    6.79
  -4   3  -5   15.48    8.57
  -4   3  -5   26.61    8.20
  -4  -3  -5   18.27    5.94
  -4   3  -5    2.78    5.98
  -4  -3  -5    0.95    5.60
  -4  -3  -5   14.06    5.07
  -4   3  -5   21.13    6.38
   4   3   5   10.66    6.70
   4  -3   5    2.92    6.70
  -4   3  -7    8.72    7.30
  -4  -3  -7   34.20   10.68
  -4   3  -7    7.99    5.16
  -4   3  -7   31.15   11.05
  -4  -3  -7   33.50   11.13
  -4   3  -7   10.26    5.47
   4   3   7   17.62    9.68
   4  -3   7   30.26   11.41
  -4  -4  16  357.86   29.89
  -4   4  16  344.19   28.73
  -4  -4  16  330.87   28.00
  -4   4  16  355.91   29.04
   4  -4 -16  357.78   31.85
   4   4 -16  354.05   31.97
  -4   4  14  806.18   39.43
  -4  -4  14  832.20   41.86
  -4   4  14  807.93   39.79
  -4  -4  14  776.04   39.11
   4   4 -14  819.84   43.68
   4  -4 -14  869.18   44.97
   4   4 -12 1754.46   59.77
   4  -4 -12 1722.01   60.41
  -4   4  12 1714.09   54.29
  -4  -4  12 1714.28   49.24
  -4  -4  12 1675.41   56.55
  -4   4  12 1649.78   44.84
   4   4 -12 1642.82   55.05
   4  -4 -12 1590.22   54.39
   4   4 -10 1583.39   47.48
   4  -4 -10 1528.96   47.05
  -4  -4  10 1546.32   35.64
  -4  -4  10 1483.12   38.94
  -4  -4  10 1510.08   37.35
   4   4 -10 1520.87   48.75
   4  -4 -10 1538.59   51.65
  -4  -4  10 1538.65   48.38
  -4   4  10 1549.57   42.46
   4   4 -10 1442.48   45.94
  -4   4  10 1514.15   44.55
  -4  -4  10 1531.86   48.27
  -4  -4   8 2642.22   52.76
  -4   4   8 2530.60   48.13
   4  -4  -8 2567.32   51.87
  -4  -4   8 2601.41   57.13
   4   4  -8 2514.15   61.07
  -4  -4   8 2636.50   60.40
  -4   4   8 2553.12   57.85
  -4   4   8 2679.93   57.29
   4   4  -8 2647.05   63.66
  -4  -4   8 2576.62   68.46
   4   4  -8 2714.48   65.39
   4   4  -8 2570.66   61.43
   4  -4  -8 2675.25   62.09
  -4   4   6 3273.35   68.49
  -4  -4   6 3205.47   68.11
   4  -4  -6 3050.65   67.01
   4   4  -6 3061.77   67.07
   4   4  -6 3096.84   63.01
  -4  -4   6 3191.18   63.77
  -4   4   6 3027.17   62.30
  -4  -4   6 3088.41   67.60
   4   4  -6 2988.30   61.64
   4   4  -6 3158.81   67.27
  -4  -4   6 3089.54   61.52
  -4  -4   6 3004.80   71.61
  -4  -4   6 3281.45   71.08
  -4   4   6 3185.39   62.37
   4  -4  -6 3043.74   61.25
   4   4  -6 3061.94   69.47
  -4   4   6 3293.91   70.71
  -4   4   6 3259.47   70.93
  -4  -4   6 3174.50   73.00
   4  -4  -6 3335.54   71.90
   4   4  -4 2071.65   49.33
   4  -4  -4 2093.05   49.55
   4   4  -4 2148.57   51.08
  -4   4   4 2152.13   49.21
   4   4  -4 2069.62   51.88
  -4  -4   4 2105.67   52.24
  -4  -4   4 2106.18   48.98
  -4  -4   4 2129.91   49.41
  -4   4   4 2073.18   48.81
   4   4  -4 2066.80   49.99
   4  -4  -4 2089.27   44.59
   4   4  -4 2028.44   51.56
  -4  -4   4 2143.41   52.41
  -4   4   4 2191.90   51.73
   4   4  -4 2032.92   37.89
   4  -4  -4 2046.23   50.47
  -4  -4   4 2106.76   51.97
   4  -4  -4 2090.51   50.54
  -4   4   4 2110.18   49.83
  -4   4   2 5842.03  109.27
  -4  -4   2 5661.59  108.97
  -4  -4   2 5613.63  109.37
  -4   4   2 5662.61  109.22
   4   4  -2 5345.80  117.01
  -4  -4   2 5629.63   97.27
  -4   4   2 5537.30  111.55
   4   4  -2 5798.61  115.31
   4   4  -2 5725.03   98.44
   4   4  -2 5657.23  106.65
  -4  -4   2 5566.98  105.05
   4   4  -2 5616.71  110.06
   4  -4  -2 5658.99  109.71
  -4   4   2 5536.74   99.94
  -4  -4   2 5573.35  106.40
  -4   4   2 5604.49  111.21
  -4   4   2 5573.09  106.83
   4  -4  -2 5615.50  108.82
  -4   4   2 5581.16  105.47
  -4   4   2 5713.47  105.63
   4  -4   0 3840.60   83.37
   4   4   0 3689.56   82.78
  -4  -4   0 3761.46   82.94
  -4   4   0 3800.76   83.07
  -4   4   0 3671.68   83.43
  -4  -4   0 3798.25   75.55
   4   4   0 3763.16   77.33
   4   4   0 3845.06   75.06
  -4  -4   0 3692.44   74.11
  -4  -4   0 3725.23   74.16
  -4   4   0 3736.07   83.28
  -4   4   0 3684.45   73.61
   4  -4   0 3737.32   73.85
  -4  -4  -2 2437.18   65.28
  -4   4  -2 2415.57   65.33
  -4   4  -2 2355.81   66.22
  -4   4  -2 2365.70   62.94
  -4  -4  -2 2431.88   60.44
   4   4   2 2409.13   52.96
  -4  -4  -2 2372.84   49.52
  -4   4  -2 2405.25   48.65
  -4   4  -2 2286.02   62.08
   4   4   2 2440.31   65.25
   4  -4   2 2372.05   64.77
  -4   4  -4 2230.64   62.93
  -4   4  -4 2224.13   69.39
  -4  -4  -4 2185.50   63.51
  -4  -4  -4 2103.84   66.79
  -4   4  -4 2175.37   67.44
   4   4   4 2220.25   50.68
  -4  -4  -4 2196.36   54.85
  -4   4  -4 2180.27   62.23
   4   4   4 2252.79   68.11
   4  -4   4 2181.81   67.26
  -4   4  -6 1692.21   55.49
  -4   4  -6 1768.86   65.82
  -4  -4  -6 1672.04   63.63
  -4   4  -6 1783.98   64.73
  -4   4  -6 1761.83   56.57
   4  -4   6 1654.77   63.05
   4   4   6 1704.42   64.17
  -4  -4  -6 1705.13   60.57
  -4  -4  -8  909.01   47.37
  -4   4  -8 1004.61   53.24
  -4   5  15   -5.53    6.53
  -4  -5  15    3.14    6.62
  -4   5  15    1.29    6.54
  -4  -5  15    1.47    7.17
   4   5 -15    0.73    7.75
   4  -5 -15   -3.38    7.08
   4   5 -13   25.66    8.43
   4  -5 -13   55.57   11.53
  -4  -5  13   49.26    7.46
  -4   5  13   37.83    8.71
  -4  -5  13   51.27   10.76
  -4   5  13   42.32    6.30
  -4   5  13   55.09   10.78
  -4  -5  13   32.54    9.09
  -4  -5  11   86.02   10.45
  -4  -5  11   85.13    7.43
   4  -5 -11   85.57    4.56
   4   5 -11   85.34   11.96
   4  -5 -11  101.45   13.72
  -4  -5  11  112.20   12.97
  -4   5  11   99.10   11.09
  -4   5  11   93.30    9.25
   4   5 -11   80.11   10.84
   4  -5 -11   95.88   11.54
   4   5  -9   56.40    8.32
   4  -5  -9   43.88    7.36
  -4  -5   9   51.83    6.36
   4  -5  -9   63.80    6.26
  -4  -5   9   47.06    5.30
   4   5  -9   45.30    7.20
   4  -5  -9   47.03    8.47
  -4  -5   9   59.10    6.74
  -4   5   9   55.99    7.25
   4   5  -9   59.55    8.67
  -4   5   9   50.16    6.19
  -4   5   9   50.57    6.76
  -4   5   9   46.94    3.76
  -4  -5   9   61.15    9.72
   4   5  -7   26.50    5.16
  -4   5   7   38.64    5.89
   4  -5  -7   32.73    5.57
  -4  -5   7   35.70    5.71
  -4  -5   7   35.34    4.99
  -4   5   7   34.55    3.98
   4  -5  -7   40.58    4.67
   4   5  -7   34.60    5.20
  -4  -5   7   39.71    5.20
  -4  -5   7   23.45    4.67
  -4   5   7   30.37    4.26
   4  -5  -7   32.65    4.26
   4   5  -7   42.65    6.77
  -4   5   7   28.03    4.05
  -4   5   7   32.52    5.86
  -4  -5   7   30.96    6.10
  -4   5   7   30.72    6.60
   4  -5  -5  521.94   20.19
   4   5  -5  516.86   20.04
   4   5  -5  558.76   20.58
   4   5  -5  529.24   14.29
  -4  -5   5  530.79   20.46
  -4   5   5  528.46   19.15
  -4  -5   5  533.21   21.83
   4   5  -5  530.46   21.41
  -4  -5   5  551.30   14.17
  -4  -5   5  529.06   21.25
  -4  -5   5  514.04   22.76
  -4  -5   5  501.48   20.24
   4  -5  -5  526.05   15.79
   4   5  -5  521.85   22.26
  -4   5   5  520.68   19.36
  -4  -5   5  538.01   14.70
  -4   5   5  526.78   21.15
  -4   5   5  536.02   22.61
   4  -5  -5  558.38   23.35
   4  -5  -5  560.66   22.39
  -4  -5   5  576.10   23.14
  -4  -5   3    9.20    3.39
  -4   5   3   15.03    3.82
  -4   5   3   14.67    4.14
   4   5  -3   16.82    4.69
   4   5  -3   21.13    5.21
  -4  -5   3   10.25    4.08
   4   5  -3   16.84    4.37
  -4  -5   3   13.32    3.71
   4   5  -3    7.15    4.03
  -4   5   3   14.36    4.20
  -4  -5   3   13.66    3.97
  -4   5   3   11.82    4.21
   4  -5  -3   21.07    5.92
   4  -5  -3   13.13    4.29
   4   5  -1    0.26    3.39
   4  -5  -1    1.68    2.90
  -4  -5   1    1.94    3.01
  -4   5   1    0.81    2.56
  -4   5   1   -2.93    4.29
  -4  -5   1    0.66    2.01
  -4  -5   1    0.01    3.05
  -4   5   1    4.70    3.70
  -4   5   1    3.35    1.84
  -4  -5   1    0.65    2.02
   4   5  -1    1.17    2.63
  -4   5   1    3.83    2.84
  -4   5   1   -1.75    4.06
  -4   5   1    5.33    3.50
  -4  -5   1    2.80    2.48
   4  -5  -1    1.74    2.17
   4   5   1   44.01    7.91
   4  -5   1   59.46    8.71
  -4   5  -1   55.60    8.28
  -4  -5  -1   51.36    6.44
   4   5   1   56.56    7.17
  -4   5  -1   31.53    6.85
  -4  -5  -1   58.13    8.25
   4   5   1   51.64    6.27
  -4  -5  -1   42.88    5.90
  -4   5  -1   55.54    8.16
  -4  -5  -1   48.59    5.47
  -4   5  -1   53.85    5.59
   4  -5   1   51.52    4.10
  -4   5  -3   55.02    9.12
  -4  -5  -3   48.73    7.85
  -4  -5  -3   37.24    8.20
  -4   5  -3   27.36    7.89
   4   5   3   44.67    5.99
  -4   5  -3   48.95    4.66
  -4   5  -3   54.16    8.80
   4   5   3   36.54    8.64
   4  -5   3   41.17    8.20
  -4   5  -5  148.22   14.60
  -4   5  -5  114.79   15.33
  -4  -5  -5  119.44   15.50
  -4   5  -5  120.29   15.82
  -4  -5  -5  127.65   14.17
  -4   5  -5  153.54   15.31
   4   5   5  131.12   16.61
   4  -5   5  121.01   15.33
  -4   5  -7   14.51    6.23
  -4   5  -7   25.69    9.33
  -4  -5  -7   12.89    6.47
   4   5   7    9.13    8.07
   4  -5   7   11.37    8.70
  -4   5  -7   20.43    7.77
  -4  -5  -7   25.52   10.78
  -4   5  -7   10.08    7.78
   4   6 -16  545.76   40.25
   4  -6 -16  540.75   39.55
  -4   6  16  465.82   33.65
  -4  -6  16  505.99   36.30
  -4   6  16  545.68   36.30
  -4  -6  16  553.19   36.17
  -4   6  16  494.73   31.39
   4   6 -14 1011.55   49.66
   4  -6 -14 1067.34   51.11
  -4   6  14  969.63   43.86
  -4  -6  14  982.02   46.66
  -4   6  14 1034.80   46.12
  -4  -6  14 1022.44   45.09
  -4  -6  12 1820.01   44.59
   4   6 -12 1798.18   61.42
   4  -6 -12 1778.45   62.93
  -4  -6  12 1780.68   59.63
  -4   6  12 1702.94   47.75
  -4   6  12 1769.54   55.02
  -4  -6  12 1752.26   52.42
  -4   6  12 1765.49   56.88
   4   6 -10 1080.99   38.11
   4  -6 -10 1083.77   38.10
   4  -6 -10 1127.93   44.39
   4   6 -10 1087.94   40.14
  -4  -6  10 1109.85   32.99
  -4  -6  10 1070.07   31.25
   4   6 -10 1104.80   40.54
  -4   6  10 1062.36   34.77
  -4  -6  10 1030.94   40.37
  -4   6  10 1074.42   35.19
   4   6  -8 2414.26   58.25
   4  -6  -8 2388.70   58.25
   4  -6  -8 2361.38   53.64
  -4   6   8 2408.49   47.55
  -4  -6   8 2387.92   54.24
  -4  -6   8 2415.21   57.56
   4   6  -8 2428.51   59.23
  -4  -6   8 2475.71   57.96
   4   6  -8 2446.76   61.95
  -4   6   8 2442.32   52.50
  -4   6   8 2385.60   48.91
  -4   6   8 2416.23   59.15
  -4  -6   8 2453.61   64.44
  -4   6   8 2456.47   53.36
   4  -6  -6 4067.53   82.52
   4   6  -6 3896.93   81.81
  -4  -6   6 4213.00   84.47
  -4   6   6 4188.37   84.47
   4   6  -6 4145.49   83.55
  -4   6   6 3932.72   79.16
  -4  -6   6 4136.62   83.53
   4   6  -6 4118.22   85.72
  -4  -6   6 4043.53   86.27
   4   6  -6 3994.63   78.49
  -4  -6   6 4207.62   77.60
  -4   6   6 4055.65   73.48
  -4   6   6 4055.43   75.36
   4  -6  -6 4040.96   73.85
   4   6  -6 4081.31   87.41
  -4  -6   6 4171.17   88.93
  -4  -6   6 3850.13   78.80
  -4   6   6 4148.54   91.03
  -4   6   6 4053.57   80.50
  -4   6   6 4106.16   86.20
  -4  -6   6 4045.62   88.89
   4  -6  -4 3789.86   80.83
   4   6  -4 3817.76   80.97
   4   6  -4 3987.29   85.48
  -4  -6   4 3991.21   85.63
  -4   6   4 3888.30   81.50
  -4  -6   4 3945.61   86.18
  -4  -6   4 4020.68   82.90
  -4  -6   4 3980.92   80.62
  -4   6   4 3908.07   80.46
   4   6  -4 4060.45   84.85
   4   6  -4 4001.56   85.98
  -4  -6   4 4046.63   86.57
   4  -6  -4 4030.49   73.68
  -4  -6   4 3860.84   82.12
  -4   6   4 4194.41   89.33
  -4   6   4 3880.68   82.14
   4  -6  -4 3866.20   87.14
   4   6  -4 3905.16   74.26
  -4   6   4 4008.10   83.16
   4  -6  -4 4141.65   84.61
  -4  -6   2 4013.14   81.36
  -4   6   2 4027.44   81.08
  -4   6   2 3853.86   80.81
  -4  -6   2 3875.67   81.17
  -4   6   2 4062.20   86.07
  -4  -6   2 3882.26   88.54
  -4  -6   2 3966.93   69.21
   4   6  -2 4005.20   82.58
   4   6  -2 3873.15   82.30
   4  -6  -2 3787.46   81.68
  -4  -6   2 4039.08   81.30
  -4   6   2 4000.08   75.60
   4   6  -2 3992.33   87.16
  -4  -6   2 3836.05   81.09
   4  -6  -2 3877.66   89.71
  -4   6   2 3882.28   85.32
  -4   6   2 4007.87   81.95
  -4   6   2 3923.89   76.86
   4  -6  -2 4139.88   81.51
   4  -6   0 1890.09   51.13
   4   6   0 1973.72   51.97
  -4  -6   0 1860.21   50.50
  -4   6   0 1861.18   50.31
  -4   6   0 1830.46   52.43
  -4  -6   0 1968.34   44.10
  -4   6   0 1883.65   37.95
   4   6   0 1992.75   47.96
  -4  -6   0 1824.59   45.55
  -4   6   0 1909.51   45.58
  -4   6   0 1877.71   52.86
   4  -6   0 1944.28   45.09
  -4  -6  -2 1619.66   50.43
  -4   6  -2 1552.29   49.72
  -4   6  -2 1633.20   50.38
  -4  -6  -2 1674.58   45.63
   4   6   2 1547.16   42.41
  -4   6  -2 1668.35   39.16
  -4  -6  -2 1522.54   38.97
  -4   6  -2 1557.50   49.79
   4   6   2 1621.10   50.45
   4  -6   2 1660.84   50.79
  -4   6  -4 1626.77   53.49
  -4  -6  -4 1707.09   53.21
  -4   6  -4 1645.82   56.90
  -4  -6  -4 1635.64   56.89
   4   6   4 1686.81   45.37
  -4   6  -4 1682.48   54.62
   4   6   4 1671.43   57.16
   4  -6   4 1596.41   55.91
  -4   6  -6  969.06   48.53
  -4   6  -6 1012.19   42.06
  -4  -6  -6  935.29   42.57
  -4   6  -6  956.24   41.55
  -4  -6  -6  993.48   46.82
  -4   6  -6  972.87   46.45
   4   6   6  945.82   45.77
   4  -6   6  832.93   43.25
  -4  -6  -8  589.80   37.23
  -4   7  15   -9.75    8.59
  -4   7  15    0.16    5.68
  -4  -7  15   -1.28    7.23
   4  -7 -15   10.41   10.66
   4   7 -15   19.03   11.24
  -4   7  15    0.58    6.67
  -4  -7  15    1.90    6.96
  -4  -7  13    7.82    4.67
   4   7 -13   -0.46    5.72
   4  -7 -13   10.75    8.42
  -4   7  13    1.32    6.14
  -4  -7  13    2.68    6.63
  -4   7  13    0.84    3.88
  -4   7  13    0.27    5.22
  -4  -7  13    5.44    6.23
  -4  -7  11  368.31   17.96
   4  -7 -11  351.74   14.25
  -4  -7  11  379.60   18.54
   4   7 -11  372.11   24.38
   4  -7 -11  366.84   25.89
  -4  -7  11  340.92   23.22
  -4   7  11  366.88   19.37
  -4  -7  11  366.05   22.56
  -4   7  11  323.49   19.52
   4   7 -11  401.02   22.97
   4  -7 -11  342.10   21.61
   4  -7  -9   34.86    6.62
   4   7  -9   34.99    6.16
  -4  -7   9   43.70    6.48
   4  -7  -9   44.25    6.22
   4   7  -9   39.34    7.31
  -4  -7   9   28.52    5.37
  -4   7   9   41.32    6.01
   4   7  -9   36.76    7.41
  -4   7   9   42.79    5.51
  -4   7   9   34.78    6.84
  -4   7   9   40.73    3.59
  -4  -7   9   33.20    7.54
  -4  -7   7   19.56    4.42
   4   7  -7   32.68    5.48
   4  -7  -7   29.05    5.16
  -4   7   7   28.77    4.88
  -4   7   7   32.04    5.38
  -4  -7   7   37.26    6.04
  -4   7   7   37.65    4.51
  -4  -7   7   27.91    4.85
   4  -7  -7   36.68    5.84
   4   7  -7   19.53    4.17
  -4  -7   7   32.31    5.84
  -4  -7   7   42.97    5.46
  -4   7   7   29.85    3.59
   4   7  -7   28.49    6.12
  -4   7   7   32.74    3.78
  -4   7   7   29.74    5.90
  -4   7   7   29.78    4.47
  -4  -7   7   41.85    7.45
   4  -7  -5  849.60   27.27
   4   7  -5  807.40   28.69
  -4  -7   5  798.89   28.68
  -4   7   5  817.30   26.39
  -4  -7   5  824.57   30.00
  -4  -7   5  847.07   20.53
  -4   7   5  804.48   27.82
   4   7  -5  793.53   30.14
  -4  -7   5  794.06   30.56
   4  -7  -5  830.17   18.07
   4   7  -5  827.46   30.01
   4  -7  -5  856.73   32.93
  -4   7   5  793.65   26.54
  -4   7   5  763.81   28.05
  -4  -7   5  821.14   23.70
   4  -7  -5  809.23   25.90
   4   7  -5  815.44   25.82
  -4  -7   3    8.81    2.98
  -4   7   3   12.23    3.67
  -4   7   3    1.05    4.24
  -4  -7   3    3.54    4.46
   4   7  -3    4.23    3.23
  -4   7   3    2.87    2.67
  -4   7   3    6.23    1.72
   4   7  -3   10.07    4.63
  -4   7   3    6.05    4.16
  -4   7   3    1.46    3.40
   4   7  -3    7.77    3.01
   4  -7  -3   -1.86    4.79
   4  -7  -3   11.75    4.06
   4   7  -1   72.67    8.32
   4  -7  -1   98.82    8.94
  -4   7   1   95.21    8.93
  -4  -7   1  110.05    9.41
  -4  -7   1   95.81    9.12
  -4   7   1   76.52    8.26
  -4   7   1   80.11    9.49
  -4  -7   1   78.66   10.25
  -4  -7   1   94.43    6.14
   4   7  -1  100.85    9.52
  -4   7   1   92.08    6.72
  -4   7   1   93.21    9.73
  -4   7   1   90.95    8.61
   4  -7  -1   89.86    7.84
  -4   7   1   80.10    7.45
   4  -7  -1   95.61   11.58
   4   7   1  592.34   26.61
   4  -7   1  565.94   26.11
  -4  -7  -1  618.55   26.82
  -4   7  -1  598.75   26.31
  -4   7  -1  620.09   28.26
  -4  -7  -1  613.23   22.69
   4   7   1  588.36   23.96
  -4   7  -1  583.10   16.66
  -4   7  -1  593.33   21.77
  -4   7  -1  600.80   28.16
   4  -7   1  589.28   19.95
  -4  -7  -3  118.06   13.52
  -4   7  -3  111.06   13.15
  -4   7  -3  132.71   14.35
  -4  -7  -3  141.02   12.57
   4   7   3  136.27   11.48
  -4   7  -3  118.07    8.54
  -4   7  -3  123.48   13.37
   4   7   3  106.66   12.66
   4  -7   3  128.42   14.16
  -4   7  -5    5.08    6.77
  -4  -7  -5    3.06    6.41
  -4   7  -5   -1.68    5.91
  -4  -7  -5    4.17    5.84
   4   7   5    5.64    4.31
  -4   7  -5   -1.90    5.72
   4   7   5   -5.29    6.83
   4  -7   5   -8.68    8.38
  -4   7  -7   32.74    9.09
  -4  -7  -7   33.05    9.55
   4   7   7   54.41   12.99
   4  -7   7   37.74   11.39
  -4   7  -7   28.64    8.66
  -4  -7  -7   45.99   12.28
  -4   7  -7   49.10   12.14
  -4   8  16  941.22   48.40
  -4  -8  16  915.31   47.41
  -4   8  16  954.99   46.25
   4   8 -14 1160.70   54.32
   4  -8 -14 1163.67   54.80
  -4   8  14 1182.93   48.83
  -4  -8  14 1086.55   47.19
  -4   8  14 1150.41   48.74
  -4   8  14 1058.77   45.71
  -4  -8  14 1109.16   50.52
  -4  -8  12 1381.46   41.95
  -4  -8  12 1350.67   40.99
   4   8 -12 1332.02   52.89
   4  -8 -12 1352.96   55.36
  -4  -8  12 1257.95   50.05
  -4   8  12 1361.36   42.49
  -4   8  12 1403.47   49.51
  -4  -8  12 1338.87   47.84
  -4  -8  12 1441.91   48.10
  -4   8  12 1322.93   45.65
   4  -8 -10 2624.85   77.85
  -4  -8  10 2718.53   65.90
   4   8 -10 2768.23   74.06
   4  -8 -10 2695.61   65.80
  -4  -8  10 2735.96   64.53
   4   8 -10 2747.45   73.35
  -4   8  10 2669.03   66.80
  -4   8  10 2631.54   63.70
  -4  -8  10 2654.99   73.89
   4   8 -10 2701.98   68.92
   4  -8 -10 2592.40   68.15
   4   8  -8 2684.00   62.64
   4  -8  -8 2619.34   62.33
   4  -8  -8 2627.64   62.57
  -4  -8   8 2635.34   62.73
  -4   8   8 2622.79   54.55
   4   8  -8 2683.27   65.52
  -4  -8   8 2658.00   65.37
   4   8  -8 2726.02   68.29
  -4   8   8 2725.76   54.88
  -4   8   8 2632.14   65.21
  -4   8   8 2630.18   54.61
  -4  -8   8 2602.34   68.37
  -4   8   8 2609.56   55.41
   4   8  -6 1403.85   36.98
   4  -8  -6 1407.82   37.25
  -4   8   6 1442.73   39.32
  -4  -8   6 1443.82   39.47
   4  -8  -6 1447.70   38.38
  -4   8   6 1400.12   37.22
  -4  -8   6 1466.10   42.10
  -4  -8   6 1401.17   43.05
  -4  -8   6 1481.18   35.39
   4   8  -6 1456.43   45.43
  -4   8   6 1397.32   42.24
   4   8  -6 1391.44   42.29
  -4   8   6 1466.35   42.72
  -4   8   6 1356.60   37.29
  -4  -8   6 1453.96   38.58
  -4  -8   6 1425.25   44.07
  -4   8   4 2416.44   59.48
  -4  -8   4 2531.91   64.38
  -4  -8   4 2577.47   65.09
  -4  -8   4 2666.31   47.77
   4   8  -4 2571.75   63.27
  -4   8   4 2486.65   55.48
  -4  -8   4 2557.58   56.27
  -4   8   4 2638.51   59.82
   4  -8  -4 2580.70   47.81
  -4   8   4 2471.91   61.19
   4   8  -4 2548.80   63.32
   4   8  -4 2502.78   55.78
   4  -8  -4 2494.35   67.34
  -4   8   4 2588.14   61.13
   4  -8  -4 2402.70   56.85
   4   8  -4 2390.68   56.62
  -4  -8   2 1332.10   35.63
  -4   8   2 1303.03   35.10
  -4  -8   2 1266.89   35.42
  -4   8   2 1274.38   35.07
  -4   8   2 1311.04   40.59
  -4  -8   2 1258.31   42.63
  -4  -8   2 1340.66   27.64
   4   8  -2 1327.33   39.57
   4   8  -2 1271.25   36.63
  -4   8   2 1299.79   31.59
   4  -8  -2 1262.57   36.15
  -4   8   2 1312.38   34.16
   4   8  -2 1220.78   40.42
  -4   8   2 1260.36   37.78
   4  -8  -2 1277.36   45.27
  -4   8   2 1307.75   41.09
   4   8  -2 1216.02   37.18
   4  -8  -2 1310.85   37.42
   4   8   0 1036.05   34.62
   4  -8   0  994.66   33.97
  -4  -8   0 1006.35   33.95
  -4   8   0  969.81   33.16
  -4   8   0  960.59   36.22
  -4  -8   0 1037.10   28.47
  -4  -8   0  997.36   39.02
  -4   8   0 1015.76   26.89
   4   8   0 1021.45   34.22
  -4   8   0 1010.77   31.89
   4  -8   0 1004.71   41.97
  -4   8   0  975.79   36.86
   4  -8   0 1059.38   30.21
   4  -8   2 1385.26   46.07
   4   8   2 1324.21   45.39
  -4  -8  -2 1331.04   45.24
  -4   8  -2 1409.09   46.05
  -4   8  -2 1313.07   46.53
  -4  -8  -2 1362.21   40.53
   4   8   2 1379.62   42.00
  -4   8  -2 1432.55   38.24
  -4   8  -2 1353.20   47.51
   4  -8   2 1335.70   29.20
  -4   8  -4  537.75   29.29
  -4  -8  -4  507.51   26.48
  -4  -8  -4  585.16   31.43
  -4   8  -4  543.35   30.35
   4   8   4  511.42   24.42
  -4   8  -4  516.53   29.45
   4   8   4  528.00   30.13
   4  -8   4  534.13   30.11
  -4   8  -6  294.22   22.91
  -4  -8  -6  254.06   21.15
  -4   8  -6  266.06   23.77
  -4  -8  -6  210.84   21.38
  -4   8  -6  224.22   20.49
   4   8   6  278.36   24.32
   4  -8   6  273.52   24.13
  -4  -9  15   20.58   10.52
  -4   9  15   28.79   10.47
  -4   9  15   45.26   10.96
  -4  -9  15   34.24   10.44
   4  -9 -15   45.66   13.60
   4   9 -15   28.63    9.67
   4   9 -13   17.60    8.60
   4  -9 -13   28.17    9.92
  -4  -9  13   17.09    5.30
  -4  -9  13   34.01    9.88
  -4   9  13   20.12    7.40
  -4   9  13   30.03    7.30
  -4   9  13   13.02    6.87
  -4  -9  13   20.80    7.36
  -4   9  11    9.46    5.70
  -4  -9  11   -0.23    3.50
   4   9 -11   10.98    8.09
  -4  -9  11    1.76    3.84
   4  -9 -11    3.67    2.97
   4  -9 -11    6.44    8.11
  -4   9  11    8.11    7.10
  -4   9  11    1.59    4.37
  -4  -9  11   -1.03    5.47
  -4   9  11   -5.00    4.50
  -4  -9  11    4.84    4.74
   4   9  -9   32.19    6.59
   4  -9  -9   18.61    5.32
  -4  -9   9   20.12    5.52
   4  -9  -9   21.35    5.23
   4   9  -9   26.11    6.78
  -4  -9   9   22.75    5.69
  -4   9   9   19.61    6.63
   4   9  -9   38.69    8.01
  -4   9   9   21.98    3.99
  -4   9   9   22.80    6.29
  -4  -9   9   28.78    6.71
  -4   9   7  141.42   10.97
  -4  -9   7  171.03   11.69
   4   9  -7  162.47   11.11
   4  -9  -7  168.62   11.37
  -4   9   7  162.24   10.78
  -4  -9   7  162.57   10.85
  -4  -9   7  169.98   13.17
   4  -9  -7  162.93   12.72
  -4   9   7  161.65   10.39
   4  -9  -7  180.64   11.35
  -4  -9   7  178.68   11.53
  -4  -9   7  167.66   13.86
  -4   9   7  157.32   13.67
  -4   9   7  173.20    6.95
   4   9  -7  141.62   12.76
  -4   9   7  166.05   13.20
  -4  -9   7  146.94   12.43
  -4   9   7  167.01   10.57
  -4  -9   7  180.35   14.54
  -4  -9   5    0.25    2.45
  -4   9   5    4.65    3.04
   4  -9  -5    3.77    2.69
   4   9  -5    4.41    3.42
  -4   9   5   10.02    4.08
  -4  -9   5    1.96    3.45
  -4  -9   5    1.34    3.85
  -4  -9   5    3.30    2.29
   4   9  -5    2.22    4.77
  -4   9   5   -1.14    3.60
   4   9  -5    4.48    4.34
  -4   9   5   14.56    4.82
  -4   9   5    6.90    3.68
   4  -9  -5    7.54    5.66
  -4  -9   5    5.70    3.51
  -4  -9   3  288.76   13.91
   4  -9  -3  312.01   15.58
  -4   9   3  315.47   14.23
  -4   9   3  271.38   16.91
  -4  -9   3  328.76   20.49
  -4  -9   3  337.30   20.46
   4   9  -3  303.22   17.84
  -4   9   3  348.74   16.47
  -4   9   3  320.20   17.42
   4   9  -3  306.30   18.75
   4  -9  -3  288.39   20.33
  -4   9   3  351.18   18.73
   4   9  -3  299.66   15.66
  -4  -9   3  314.08   14.17
  -4   9   3  311.06   13.91
   4   9  -1   25.02    5.12
   4  -9  -1   42.59    6.70
  -4  -9   1   31.81    5.39
  -4   9   1   28.96    5.22
  -4  -9   1   33.11    5.69
  -4   9   1   29.39    5.27
  -4   9   1   32.82    7.94
  -4  -9   1   29.41    3.95
  -4  -9   1   22.18    5.79
   4   9  -1   33.66    6.34
  -4   9   1   29.34    4.92
  -4   9   1   33.28    4.81
   4   9  -1   36.85    7.62
  -4   9   1   19.37    5.88
  -4   9   1   31.03    6.16
   4  -9  -1   34.05    8.56
   4  -9  -1   41.07    6.37
   4   9   1   41.90    7.70
   4  -9   1   23.69    6.02
  -4  -9  -1   28.13    6.27
  -4   9  -1   36.47    7.06
  -4   9  -1   18.92    6.70
  -4  -9  -1   24.38    7.44
  -4  -9  -1   33.53    5.33
  -4   9  -1   27.18    4.12
   4   9   1   27.24    6.68
  -4   9  -1   34.72    8.16
  -4   9  -1   29.16    5.51
   4  -9   1   27.70    4.59
  -4  -9  -3  105.81   13.01
  -4   9  -3  114.93   13.24
  -4   9  -3  106.70   13.36
  -4  -9  -3   98.35   10.61
   4   9   3   99.31   10.66
  -4   9  -3  115.77    9.82
  -4   9  -3  121.03   14.16
   4   9   3  113.62   13.53
   4  -9   3   98.45   12.39
  -4   9  -5   44.41    9.83
  -4  -9  -5   25.84    7.22
   4   9   5   20.47    6.32
  -4   9  -5   12.53    7.25
   4   9   5   28.84    8.05
   4  -9   5   32.44    9.21
  -4  -9  -5   50.62   11.36
  -4   9  -5   41.28   10.23
  -4   9  -7   38.93   10.23
  -4  -9  -7   22.77    9.41
  -4   9  -7   28.19    8.76
   4   9   7   41.45   12.15
   4  -9   7   52.10   12.45
  -4   9  -7   16.98    7.69
  -4  10  16  872.14   46.43
  -4 -10  16  777.31   43.70
  -4  10  16  862.95   44.39
   4  10 -14  914.61   49.27
   4 -10 -14  937.64   49.86
  -4  10  14  914.22   44.93
  -4  10  14  907.96   43.20
  -4 -10  14  866.58   41.74
  -4 -10  14 1008.79   48.38
   4  10 -12  466.40   31.01
  -4 -10  12  491.96   25.29
  -4 -10  12  535.65   25.95
   4 -10 -12  519.62   33.99
  -4 -10  12  493.95   30.59
  -4  10  12  533.92   31.03
  -4  10  12  478.04   24.81
  -4  10  12  538.25   28.78
  -4 -10  12  521.14   28.02
  -4 -10  12  566.80   29.89
  -4 -10  10 2072.11   57.57
   4 -10 -10 2063.20   59.13
   4  10 -10 2057.04   63.79
  -4 -10  10 2067.92   58.63
   4  10 -10 2037.75   62.71
  -4  10  10 2068.52   64.00
  -4  10  10 2099.11   58.55
  -4 -10  10 2192.43   64.33
   4  10 -10 2073.61   57.69
   4 -10 -10 2017.80   57.31
   4  10  -8 1409.17   40.03
   4 -10  -8 1432.43   40.26
   4 -10  -8 1415.90   44.48
  -4 -10   8 1384.99   43.90
  -4  10   8 1408.13   36.70
   4 -10  -8 1322.80   36.89
  -4 -10   8 1466.66   46.36
  -4  10   8 1482.68   48.50
   4  10  -8 1449.65   46.33
  -4  10   8 1378.00   44.56
  -4  10   8 1430.34   31.26
  -4  10   8 1352.21   35.74
  -4 -10   8 1427.98   47.04
  -4 -10   8 1354.56   46.16
  -4  10   6 1118.76   30.91
  -4 -10   6  985.09   30.19
   4 -10  -6 1098.67   38.24
  -4  10   6 1066.19   33.88
  -4 -10   6 1131.55   38.82
  -4 -10   6 1126.54   39.93
  -4 -10   6 1161.66   31.65
  -4  10   6 1142.20   38.51
   4  10  -6 1166.16   41.46
  -4  10   6 1154.83   38.89
   4  10  -6 1160.12   38.39
  -4 -10   6 1080.29   35.88
  -4  10   6 1090.45   33.82
   4  10  -6 1155.10   31.24
   4 -10  -6 1170.02   31.47
  -4  10   4 2084.84   55.53
  -4 -10   4 2214.80   61.17
  -4 -10   4 2180.77   60.82
  -4 -10   4 2195.70   44.81
   4  10  -4 2155.14   58.99
  -4  10   4 2193.20   55.13
  -4  10   4 2103.20   56.95
   4  10  -4 2057.59   57.10
   4  10  -4 2129.83   54.14
   4 -10  -4 2206.97   65.49
  -4  10   4 2121.81   56.18
   4 -10  -4 2158.43   49.47
   4  10  -4 2136.18   49.12
  -4 -10   4 2046.89   48.03
  -4  10   4 2078.27   47.51
  -4  10   2 1255.18   34.49
  -4 -10   2 1265.09   35.09
  -4 -10   2 1232.73   46.03
  -4  10   2 1284.10   42.48
  -4 -10   2 1341.02   30.55
  -4 -10   2 1220.31   44.08
   4  10  -2 1344.99   42.74
  -4  10   2 1365.98   37.61
   4  10  -2 1290.02   42.93
  -4  10   2 1281.73   40.37
   4 -10  -2 1364.85   49.58
  -4  10   2 1317.56   43.32
  -4 -10   2 1260.25   34.70
  -4  10   2 1249.63   34.27
   4 -10   0 1008.90   34.85
  -4 -10   0 1072.33   34.93
  -4  10   0 1086.93   34.76
  -4  10   0 1105.21   40.86
  -4 -10   0 1104.91   42.86
  -4 -10   0 1106.06   30.37
   4  10   0 1028.26   35.17
  -4  10   0 1020.34   30.81
   4  10   0 1054.22   37.75
  -4  10   0 1067.63   35.49
  -4  10   0 1004.70   39.93
   4 -10   0 1003.06   45.46
   4 -10   0 1072.39   33.02
  -4  10  -2 1599.56   50.20
  -4 -10  -2 1577.37   50.27
  -4  10  -2 1547.73   53.68
  -4 -10  -2 1650.15   46.02
  -4 -10  -2 1574.62   56.90
   4  10   2 1605.89   49.83
  -4  10  -2 1623.04   45.75
  -4  10  -2 1668.35   56.17
   4  10   2 1631.63   51.63
   4 -10   2 1590.96   50.73
  -4  10  -4  342.18   24.38
  -4 -10  -4  292.62   19.60
   4  10   4  278.16   19.39
  -4  10  -4  323.78   24.62
   4  10   4  297.35   22.69
   4 -10   4  268.58   21.53
  -4  10  -4  269.33   21.33
  -4 -10  -4  284.66   21.97
  -4  10  -6  653.34   36.10
  -4 -10  -6  616.45   36.86
  -4  10  -6  602.53   36.28
  -4  10  -6  606.58   35.99
   4  10   6  666.62   38.24
   4 -10   6  644.78   37.26
  -4  11  15   27.22   10.13
  -4 -11  15   -0.85    7.13
  -4 -11  15    9.62    7.09
  -4  11  15   29.71   10.04
   4  11 -15    4.81    8.14
   4 -11 -15   14.52    9.15
   4  11 -13   28.33   10.21
   4 -11 -13   17.38    9.31
  -4 -11  13   37.64    7.81
  -4  11  13   16.02    7.83
  -4 -11  13   26.64    6.68
  -4  11  13   39.51    7.86
  -4  11  13   46.05    9.57
  -4 -11  13   44.09    9.15
  -4  11  11   57.01    9.47
  -4 -11  11   65.25   10.17
  -4 -11  11   50.22    8.58
   4  11 -11   66.83   12.17
  -4 -11  11   54.64    8.97
   4 -11 -11   55.97   12.17
   4 -11 -11   61.25    8.28
  -4  11  11   51.19   10.93
  -4 -11  11   75.72   12.05
  -4  11  11   44.15    7.90
  -4 -11  11   78.48   11.65
   4  11  -9  200.35   14.22
   4 -11  -9  205.94   14.50
  -4 -11   9  194.65   15.68
   4 -11  -9  207.76   16.66
  -4 -11   9  206.63   16.64
  -4  11   9  207.00   17.70
   4  11  -9  219.80   17.80
  -4  11   9  203.16   16.15
  -4 -11   9  207.67   18.10
  -4 -11   9  210.28   17.29
  -4 -11   7  247.77   13.15
  -4  11   7  251.34   13.41
  -4 -11   7  266.36   18.27
   4 -11  -7  247.40   17.53
  -4  11   7  246.94   14.50
  -4 -11   7  263.93   18.79
  -4  11   7  238.35   17.70
   4  11  -7  268.55   20.19
   4  11  -7  270.00   18.13
  -4  11   7  241.61   17.13
  -4  11   7  281.98   14.96
  -4 -11   7  239.35   16.95
   4  11  -7  244.09   13.34
   4 -11  -7  262.43   13.90
  -4  11   7  263.90   15.32
  -4 -11   7  255.83   15.27
  -4  11   5  287.71   17.14
  -4 -11   5  324.82   20.79
  -4 -11   5  320.50   20.91
  -4 -11   5  325.88   14.05
   4  11  -5  310.43   20.50
  -4  11   5  297.22   13.62
  -4  11   5  293.88   18.57
  -4 -11   5  284.61   13.78
   4  11  -5  321.74   18.93
  -4  11   5  288.19   18.63
   4 -11  -5  288.90   22.30
  -4 -11   5  324.15   18.02
  -4  11   5  290.64   17.41
   4 -11  -5  301.65   13.52
   4  11  -5  309.07   13.62
  -4 -11   3   58.50    5.75
  -4  11   3   61.69    5.89
  -4  11   3   57.41    5.82
  -4 -11   3   53.01    5.68
   4 -11  -3   50.38    6.37
   4  11  -3   61.79    6.90
  -4  11   3   63.39    9.38
  -4 -11   3   54.98    5.45
  -4 -11   3   45.81    8.25
  -4 -11   3   50.55    9.60
  -4  11   3   51.31    7.46
   4  11  -3   59.23    9.15
   4  11  -3   60.91    9.31
   4 -11  -3   60.08    4.17
  -4  11   3   66.23    9.01
  -4  11   3   56.12    8.38
   4 -11  -3   53.35    9.63
   4  11  -1   81.40    8.73
  -4 -11   1   89.70    8.48
  -4  11   1  105.26    8.97
  -4 -11   1   99.82    9.24
  -4  11   1   94.74    8.56
  -4  11   1  105.68   11.93
  -4 -11   1   76.21   11.15
  -4 -11   1  101.25    7.56
  -4  11   1  103.95    9.37
   4  11  -1   90.68   11.30
   4 -11  -1   98.84    9.38
   4  11  -1  108.38   12.49
   4 -11  -1   86.76    7.98
  -4  11   1   92.23   11.37
  -4  11   1  101.25   10.75
   4 -11  -1   80.48   12.85
   4  11   1   55.81    8.61
   4 -11   1   58.49    8.51
  -4 -11  -1   48.04    7.62
  -4  11  -1   42.57    7.22
  -4  11  -1   53.61    9.93
  -4 -11  -1   55.64   10.67
  -4 -11  -1   50.84    6.76
  -4  11  -1   56.71    6.90
   4  11   1   57.30    9.29
  -4  11  -1   53.28    9.60
  -4  11  -1   43.06    7.60
   4 -11   1   54.34   11.53
  -4 -11  -3  118.35   13.20
  -4  11  -3  134.80   14.05
  -4  11  -3  137.81   15.78
  -4 -11  -3  122.46   11.95
  -4  11  -3  127.56   11.67
   4  11   3  117.72   12.88
  -4  11  -3  149.91   17.35
   4  11   3  155.96   15.73
   4 -11   3  145.11   14.84
  -4  11  -5    7.55    7.05
   4  11   5    5.31    5.42
  -4  11  -5    4.60    6.45
  -4 -11  -5   13.38    6.78
  -4  11  -5   20.10    8.51
   4  11   5    5.18    6.32
   4 -11   5   11.74    7.54
  -4  11  -7   -3.16    6.19
   4  11   7    7.34    7.58
   4 -11   7    8.02    8.75
  -4 -11  -7   20.24   10.20
  -4  11  -7    4.96    6.99
   4  12 -14  337.34   30.30
   4 -12 -14  330.76   30.25
  -4  12  14  328.25   27.02
  -4  12  14  325.99   25.20
  -4 -12  14  335.77   24.96
  -4 -12  14  294.12   26.63
   4 -12 -12  213.47   22.38
  -4 -12  12  209.84   17.65
  -4 -12  12  218.49   20.82
  -4  12  12  242.26   21.50
  -4  12  12  212.05   17.48
  -4 -12  12  204.26   17.55
   4  12 -12  266.32   24.14
  -4  12  12  248.00   19.36
  -4 -12  12  200.92   17.27
  -4  12  10 1125.23   38.33
  -4 -12  10 1026.62   36.91
  -4 -12  10 1086.52   41.31
   4 -12 -10 1099.02   42.96
  -4 -12  10 1097.69   42.22
  -4  12  10 1077.42   45.09
  -4  12  10  993.59   39.76
  -4 -12  10 1049.30   46.70
  -4 -12  10 1134.33   44.39
  -4 -12   8  792.13   29.24
   4  12  -8  792.57   27.23
   4 -12  -8  781.51   27.26
  -4 -12   8  713.25   26.06
  -4  12   8  737.01   26.49
   4 -12  -8  775.56   33.95
  -4 -12   8  814.50   34.45
  -4 -12   8  746.41   33.92
  -4  12   8  795.22   35.25
  -4  12   8  721.89   32.30
   4  12  -8  771.28   33.28
  -4 -12   8  756.80   34.69
  -4 -12   8  784.67   34.74
  -4  12   6  928.29   26.41
  -4 -12   6  859.61   25.94
   4 -12  -6  927.49   37.42
  -4  12   6  908.94   32.57
  -4 -12   6  967.05   38.25
  -4 -12   6  909.32   37.91
  -4 -12   6  962.16   29.91
  -4  12   6  912.80   35.95
   4  12  -6  996.53   39.98
  -4  12   6  915.02   36.05
   4  12  -6  888.30   34.27
  -4 -12   6 1004.47   36.26
  -4  12   6  891.66   32.12
   4  12  -6  914.50   26.44
   4 -12  -6  959.12   26.98
  -4 -12   4 2988.47   62.88
  -4  12   4 3091.61   62.29
  -4 -12   4 3191.81   64.30
  -4  12   4 2962.75   75.52
  -4 -12   4 3179.16   82.75
  -4 -12   4 3163.45   82.36
   4  12  -4 3223.70   80.77
  -4  12   4 3189.15   75.84
  -4  12   4 3118.12   77.58
   4  12  -4 3003.66   75.80
  -4  12   4 3057.78   75.99
   4 -12  -4 3033.35   87.11
   4 -12  -4 3060.00   63.38
   4  12  -4 3116.34   63.49
  -4 -12   4 3047.70   62.54
  -4  12   4 3086.05   61.78
  -4 -12   2  988.39   29.26
  -4  12   2  994.91   28.75
  -4  12   2 1020.97   38.93
  -4 -12   2 1002.73   42.89
  -4 -12   2 1055.07   42.02
   4  12  -2 1013.61   38.82
  -4  12   2 1065.43   34.97
   4  12  -2 1036.65   38.51
   4 -12  -2  966.99   26.31
  -4  12   2 1055.67   37.95
   4 -12  -2 1036.06   45.91
  -4  12   2  987.07   39.04
  -4 -12   2  989.73   29.03
  -4  12   2  963.06   28.32
  -4  12   0 1480.39   51.70
  -4 -12   0 1557.65   55.09
  -4 -12   0 1505.02   39.53
   4 -12   0 1465.76   43.97
  -4  12   0 1509.70   43.31
   4  12   0 1473.99   49.64
   4  12   0 1522.16   45.18
   4  12   0 1560.55   51.82
  -4  12   0 1509.64   47.56
   4 -12   0 1596.35   61.28
  -4  12   0 1520.49   53.22
  -4 -12   0 1512.20   43.16
  -4  12   0 1508.28   43.05
  -4  12  -2 2011.05   57.16
  -4 -12  -2 1835.33   55.91
  -4  12  -2 1936.77   63.53
  -4 -12  -2 1954.20   52.41
  -4 -12  -2 1903.14   65.81
  -4  12  -2 1944.35   55.34
   4  12   2 1970.38   60.31
   4 -12   2 1918.60   73.79
  -4  12  -2 1950.19   65.09
   4  12   2 1874.85   57.25
   4 -12   2 1916.61   56.85
  -4  12  -4 1146.61   48.63
   4  12   4 1043.87   43.02
   4 -12   4 1067.29   57.94
  -4  12  -4 1169.80   50.81
  -4 -12  -4 1010.84   43.49
  -4  12  -4 1122.54   45.04
   4  12   4 1142.52   46.34
   4 -12   4 1110.07   45.49
  -4  12  -6  655.05   37.67
  -4 -12  -6  670.05   37.83
  -4  12  -6  698.23   39.28
   4  12   6  681.20   39.01
   4 -12   6  604.26   36.48
  -4  13  13    9.09    5.90
  -4 -13  13    0.18    6.01
  -4  13  13   12.58    7.26
  -4 -13  13   17.58    6.99
  -4  13  13   10.20    5.27
   4 -13 -13   13.31    8.82
  -4  13  11    5.78    4.26
  -4 -13  11    6.08    4.91
   4 -13 -11    9.22    6.45
  -4 -13  11    4.85    4.93
   4 -13 -11    6.58    4.41
  -4 -13  11   15.69    6.91
   4 -13 -11    7.75    7.78
  -4  13  11   12.77    7.12
  -4 -13  11    7.31    7.36
  -4  13  11    9.79    5.34
  -4 -13  11   13.49    8.69
  -4 -13  11   19.78    8.25
  -4  13   9    2.95    3.34
  -4 -13   9   -0.78    3.51
   4 -13  -9   -3.04    5.42
  -4 -13   9    3.67    5.06
  -4 -13   9    2.24    4.73
  -4  13   9    8.89    6.09
   4  13  -9    6.21    5.91
  -4  13   9    5.52    5.24
  -4 -13   9   -0.44    5.15
  -4 -13   9   -0.20    5.01
   4  13  -7   84.43    7.56
   4 -13  -7   71.33    6.97
  -4  13   7   76.32    9.16
  -4 -13   7   77.05   11.03
   4 -13  -7   78.92   11.39
  -4 -13   7   93.83   12.61
   4  13  -7   83.78   12.91
  -4  13   7   95.05   12.56
   4  13  -7  104.89   12.09
  -4  13   7   77.79   11.06
  -4 -13   7   94.46   12.17
  -4 -13   5  255.08   11.68
   4 -13  -5  261.58   20.21
  -4  13   5  285.11   18.36
  -4 -13   5  319.55   22.55
  -4 -13   5  274.26   21.01
  -4 -13   5  281.53   14.56
   4  13  -5  279.35   20.72
  -4  13   5  276.75   18.96
  -4  13   5  257.38   19.15
   4  13  -5  276.71   18.29
   4 -13  -5  280.07   23.76
  -4 -13   5  259.61   18.28
  -4  13   5  265.69   17.73
   4  13  -5  262.11   11.54
   4 -13  -5  259.13   11.54
  -4 -13   5  276.60   12.29
  -4 -13   3    2.80    2.40
  -4 -13   3    4.75    2.54
  -4  13   3    1.44    2.25
   4 -13  -3    2.84    2.84
   4  13  -3    6.97    3.28
  -4  13   3    0.64    4.20
  -4 -13   3   -2.59    5.65
  -4 -13   3   -2.33    3.37
  -4 -13   3    8.98    5.98
   4  13  -3    7.48    5.92
  -4  13   3   -1.27    4.53
   4  13  -3    0.73    4.10
  -4  13   3    1.17    5.53
  -4  13   3   -0.10    4.57
   4  13  -3   -0.55    5.46
   4 -13  -3   -1.30    7.54
  -4 -13   1    2.48    3.08
  -4  13   1    4.22    3.33
  -4  13   1    4.39    5.12
  -4 -13   1    2.58    2.73
  -4 -13   1   10.19    7.71
   4  13  -1    1.87    4.97
  -4  13   1    5.02    5.10
   4  13  -1    1.39    5.70
  -4  13   1   -0.25    4.52
   4  13  -1    4.51    4.72
  -4  13   1    0.14    4.79
   4 -13  -1    0.60    7.32
   4  13   1   -1.41    3.88
   4 -13   1   -0.77    4.28
  -4 -13  -1    3.77    4.82
  -4  13  -1   -0.03    3.42
  -4  13  -1    8.04    7.09
  -4 -13  -1   -0.46    5.43
  -4 -13  -1    3.36    4.03
  -4  13  -1    3.53    3.89
   4  13   1    2.23    5.64
   4  13   1    3.38    6.18
  -4  13  -1    3.06    5.72
  -4  13  -1    6.97    5.35
   4 -13   1    3.80    9.04
   4  13   3   44.20    9.51
   4 -13   3   44.79    8.92
  -4  13  -3   69.72   12.88
  -4 -13  -3   65.71   12.45
   4  13   3   60.11   11.40
   4 -13   3   66.56   15.57
  -4  13  -3   69.80   13.50
  -4  13  -3   66.48    9.49
  -4 -13  -3   56.77    9.62
  -4  13  -3   55.17    9.35
   4  13   5    7.97    6.22
   4 -13   5    7.89    7.17
  -4 -13  -5    4.38    6.41
  -4  13  -5    5.69    6.64
  -4  13  -5    8.67    7.50
   4  13   5   -7.88    7.36
   4 -14 -14  551.34   40.21
  -4 -14  14  546.81   36.67
   4 -14 -12  315.12   28.72
  -4 -14  12  306.72   23.18
  -4 -14  12  320.29   25.44
  -4  14  12  339.72   26.62
  -4  14  12  306.39   22.50
  -4 -14  12  276.10   27.65
  -4 -14  12  307.05   23.20
  -4 -14  10 1127.10   38.91
  -4 -14  10 1228.73   48.14
   4 -14 -10 1303.01   50.93
   4 -14 -10 1323.92   46.47
  -4 -14  10 1279.55   49.46
  -4 -14  10 1212.48   48.13
  -4  14  10 1276.57   51.00
  -4  14  10 1297.62   48.01
  -4 -14  10 1227.75   53.41
  -4 -14  10 1151.05   47.66
  -4  14   8  808.19   26.99
  -4 -14   8  792.86   26.65
   4 -14  -8  819.16   38.21
  -4 -14   8  809.82   37.67
  -4 -14   8  832.36   38.64
  -4  14   8  835.70   38.27
   4  14  -8  825.65   40.90
  -4  14   8  855.97   37.18
   4  14  -8  818.14   35.42
  -4 -14   8  783.57   37.95
  -4 -14   8  857.40   38.76
   4 -14  -6  771.79   36.35
  -4  14   6  710.30   30.44
  -4 -14   6  738.25   36.08
  -4 -14   6  659.56   34.48
  -4  14   6  764.08   34.33
   4  14  -6  764.04   36.97
   4  14  -6  697.67   30.52
  -4  14   6  725.83   33.92
  -4 -14   6  706.96   32.92
   4 -14  -6  696.90   20.87
  -4 -14   4 1150.36   27.59
  -4  14   4 1108.03   41.88
  -4 -14   4 1149.42   47.03
  -4 -14   4 1143.62   46.89
   4  14  -4 1178.62   45.75
  -4  14   4 1157.07   41.84
   4  14  -4 1200.88   45.09
   4  14  -4 1132.33   40.48
  -4  14   4 1170.36   43.95
   4 -14  -4 1054.54   49.48
  -4  14   4 1205.38   43.36
   4 -14  -4 1185.67   27.45
  -4 -14   2  567.76   19.69
  -4 -14   2  617.75   34.74
  -4  14   2  606.39   30.87
  -4 -14   2  600.98   33.12
   4  14  -2  684.10   33.21
  -4  14   2  592.68   27.53
   4  14  -2  580.85   30.21
  -4  14   2  668.29   31.17
   4  14  -2  625.76   29.60
   4 -14  -2  526.28   35.13
  -4  14   2  647.39   32.26
   4 -14  -2  561.40   21.55
   4  14  -2  560.83   21.19
  -4  14   0  705.68   35.31
  -4 -14   0  661.27   36.07
  -4  14   0  643.46   28.24
   4  14   0  599.99   32.20
   4  14   0  638.05   26.48
   4 -14   0  632.87   26.21
  -4  14   0  645.93   31.07
   4  14   0  633.60   31.85
  -4  14   0  657.84   34.82
   4 -14   0  578.22   38.55
  -4 -14   0  654.73   25.10
  -4  14  -2 1560.27   58.62
  -4 -14  -2 1575.48   61.05
   4  14   2 1516.46   56.64
  -4  14  -2 1606.44   52.11
   4 -14   2 1491.69   67.78
  -4  14  -2 1488.11   58.77
  -4 -14  -2 1551.11   48.84
   4  14   2 1633.69   56.58
   4 -14   2 1486.06   48.92
   4  14   4  366.34   26.08
   4 -14   4  442.90   37.58
  -4  14  -4  402.16   30.94
  -4  14  -4  357.74   28.08
  -4  15  13   11.88    8.13
  -4 -15  13    1.18    5.97
   4 -15 -13   -1.61    8.28
  -4  15  13   -1.03    5.31
  -4 -15  13  -11.61    9.62
   4 -15 -11    3.58    6.62
  -4 -15  11    6.37    6.10
  -4 -15  11   -1.87    5.23
   4 -15 -11   -2.62    7.20
  -4  15  11   -3.86    6.84
  -4 -15  11   -4.90    7.02
  -4  15  11    5.35    6.29
  -4 -15  11    5.06    8.53
  -4 -15  11    4.97    5.67
   4 -15  -9   26.15    9.33
  -4 -15   9   17.55    6.76
  -4 -15   9   37.56    9.93
  -4  15   9   22.66    9.04
   4  15  -9   28.11    7.82
  -4  15   9   42.84   10.19
  -4 -15   9   25.66    8.14
  -4 -15   9   36.47   10.41
  -4 -15   7  156.04   16.76
   4 -15  -7  142.67   16.09
  -4 -15   7  129.00   15.57
   4  15  -7  121.65   15.68
  -4  15   7  134.04   15.52
   4  15  -7  131.03   13.56
  -4  15   7  158.14   16.30
  -4 -15   7  129.76   15.26
  -4 -15   5    7.50    5.26
  -4  15   5   10.24    6.35
   4  15  -5   13.00    8.64
   4  15  -5    5.52    5.65
   4 -15  -5   14.03    8.27
  -4  15   5    6.59    5.82
  -4 -15   5    5.34    7.59
  -4  15   5    3.68    5.07
   4 -15  -5   12.28    7.42
  -4 -15   3  114.08   15.54
  -4  15   3  129.43   15.05
  -4 -15   3  116.25   15.29
   4  15  -3   96.46   13.54
  -4  15   3  102.20   11.96
   4  15  -3  106.88   12.11
  -4  15   3  120.37   14.24
  -4  15   3  110.30   13.61
   4  15  -3  127.44   14.48
   4 -15  -3  134.35   18.49
  -4  15   1  108.36   14.42
  -4 -15   1  124.45   16.79
  -4 -15   1  123.86   16.08
   4  15  -1  140.09   15.78
  -4  15   1  103.86   11.87
   4  15  -1   98.01   12.40
  -4  15   1   95.50   13.12
  -4  15   1  110.76   13.62
   4  15  -1  124.18   15.42
   4 -15  -1  108.07   17.65
  -4  15  -1   13.88    7.97
  -4 -15  -1    9.29    6.50
  -4  15  -1   19.65    6.02
   4  15   1   20.92    9.44
   4  15   1    9.52    5.75
  -4  15  -1   15.27    7.37
  -4  15  -1   10.99    5.95
   4 -15   1  -11.08    9.72
  -4  15  -3   81.47   13.77
  -4 -15  -3   69.47   13.87
   4  15   3   64.10   11.61
  -4  15  -3   77.18   14.42
  -4  15  -3   67.14   10.56
   4 -15   3   79.19   16.99
   4  15   3   73.67   12.91
   4  15   5   45.18   11.32
  -4 -16  14  311.32   32.79
   4 -16 -12  702.38   44.44
  -4 -16  12  652.07   36.87
  -4  16  12  644.10   39.11
  -4 -16  12  591.70   36.14
  -4  16  12  629.99   35.11
  -4 -16  12  621.87   43.10
  -4 -16  12  662.39   37.13
  -4 -16  10 1011.65   46.47
   4 -16 -10 1049.87   48.89
   4 -16 -10 1025.52   44.21
  -4 -16  10 1005.10   46.65
  -4 -16  10  976.71   44.07
  -4  16  10 1069.54   48.36
  -4  16  10 1044.21   45.34
  -4 -16  10 1051.17   51.18
  -4 -16  10 1097.15   47.52
  -4 -16   8  711.56   38.64
  -4  16   8  794.54   39.32
   4  16  -8  790.23   42.09
   4  16  -8  811.48   36.17
  -4  16   8  776.54   38.00
  -4 -16   8  778.51   39.91
   4 -16  -8  803.50   40.89
  -4 -16   8  752.56   39.09
  -4 -16   6  464.15   30.25
  -4  16   6  444.25   27.57
   4  16  -6  425.79   29.52
  -4  16   6  431.62   27.48
   4  16  -6  456.53   25.08
  -4 -16   6  431.17   27.52
   4 -16  -6  491.77   31.29
  -4 -16   6  436.68   29.37
  -4 -16   4 1273.47   53.29
   4  16  -4 1393.33   53.46
  -4  16   4 1256.27   47.33
   4  16  -4 1348.80   51.37
   4  16  -4 1338.34   45.17
  -4  16   4 1304.39   50.17
   4 -16  -4 1304.49   59.30
   4 -16  -4 1288.89   53.39
  -4  16   4 1307.50   48.77
  -4 -16   4 1250.61   53.62
  -4 -16   2  776.46   40.71
   4  16  -2  803.00   39.47
  -4  16   2  799.20   35.15
   4  16  -2  796.06   38.38
  -4  16   2  766.68   36.77
   4  16  -2  764.35   34.15
   4 -16  -2  809.07   46.82
  -4  16   2  798.62   38.88
  -4  16   2  744.97   37.26
  -4 -16   2  714.90   40.75
  -4 -16   0  351.68   27.80
  -4  16   0  343.92   22.00
   4  16   0  352.93   26.19
   4  16   0  373.76   24.63
  -4  16   0  368.11   25.01
   4 -16   0  366.29   32.27
  -4  16   0  356.25   27.10
  -4  16   0  306.88   24.43
  -4 -16  -2  398.88   30.60
  -4  16  -2  380.04   25.47
   4 -16   2  348.63   33.92
   4  16   2  398.94   28.39
  -4  16  -2  365.65   28.24
   4  16   4  197.15   20.38
  -4 -17  13   -5.03    6.86
  -4 -17  13    5.98    9.06
  -4 -17  11   85.10   14.73
   4 -17 -11   77.18   14.77
  -4  17  11   78.06   14.47
  -4 -17  11   61.12   12.48
  -4 -17  11   58.73   12.00
   4 -17 -11   69.80   15.02
  -4  17  11   77.66   13.01
  -4 -17  11   49.32   14.17
   4 -17  -9   10.64    7.90
  -4 -17   9    6.57    8.07
  -4 -17   9   10.87    7.73
  -4  17   9    4.13    8.26
  -4  17   9    5.92    6.35
  -4 -17   9    5.82    6.17
  -4 -17   9    6.06    6.59
  -4 -17   7   34.08    9.31
   4 -17  -7   51.18   11.55
  -4 -17   7   54.24   11.90
  -4  17   7   42.11   10.15
   4  17  -7   50.41   12.03
   4  17  -7   61.00   10.12
  -4  17   7   73.53   13.01
  -4 -17   7   62.49   11.60
  -4 -17   5  147.78   18.29
   4  17  -5  169.26   19.05
  -4  17   5  156.16   16.96
   4  17  -5  160.56   14.85
  -4  17   5  125.86   15.88
  -4 -17   5  183.87   20.83
  -4  17   5  158.45   16.47
   4 -17  -5  139.01   18.31
  -4  17   3   12.25    7.89
   4 -17  -3   -0.73    5.81
  -4 -17   3    5.33    5.93
  -4 -17   3    4.20    7.67
   4  17  -3    6.24    6.90
  -4  17   3    0.75    5.64
   4  17  -3    7.70    5.62
   4  17  -3   -1.48    6.49
  -4  17   3    0.63    5.30
   4 -17  -3   25.44   11.62
  -4  17   1    5.32    7.21
  -4 -17   1    1.34    7.54
   4  17  -1    0.61    6.13
  -4  17   1    0.83    5.34
  -4 -17   1   12.17    8.52
   4  17  -1   -8.34    6.66
  -4  17   1    5.21    6.43
   4 -17  -1   -2.00    7.79
  -4  17  -1  199.80   21.59
  -4 -17  -1  180.35   21.11
  -4  17  -1  170.88   18.04
   4  17   1  174.47   19.70
   4 -17   1  214.45   26.88
  -4 -17  -3   -9.90    8.29
   4  17   3    7.55    6.87
  -4  18  12  619.32   36.95
  -4 -18  12  586.10   36.56
  -4 -18  12  596.63   37.51
  -4 -18  12  579.63   37.24
  -4 -18  10  383.85   29.61
   4 -18 -10  331.66   28.83
  -4 -18  10  389.02   30.31
   4 -18 -10  398.37   28.41
  -4  18  10  413.52   31.14
  -4 -18  10  362.52   26.60
  -4  18  10  391.44   28.56
  -4 -18  10  382.71   31.42
  -4 -18  10  409.00   29.72
   4  18  -8  577.47   30.76
  -4 -18   8  546.28   35.74
  -4  18   8  587.09   35.66
   4  18  -8  491.32   35.24
  -4  18   8  548.30   33.87
  -4 -18   8  494.78   33.34
  -4 -18   8  535.46   34.95
   4 -18  -8  518.28   35.15
  -4 -18   6  781.34   42.89
  -4  18   6  760.53   39.43
   4  18  -6  801.99   43.16
  -4  18   6  668.68   37.64
  -4 -18   6  784.82   40.32
   4 -18  -6  748.30   42.09
  -4 -18   6  692.52   40.55
  -4 -18   4  588.34   36.77
   4  18  -4  531.79   34.10
  -4  18   4  531.65   31.69
  -4  18   4  577.59   33.80
   4 -18  -4  460.52   36.72
   4 -18  -4  560.86   36.36
  -4  18   4  461.20   29.65
  -4 -18   4  575.85   36.99
  -4 -18   2  613.67   38.41
   4  18  -2  663.82   37.95
  -4  18   2  581.19   32.14
  -4  18   2  654.03   35.90
   4  18  -2  616.61   35.91
   4 -18  -2  670.94   44.57
  -4  18   2  640.93   36.44
   4 -18  -2  602.81   38.90
  -4 -18   2  618.21   40.01
  -4 -18   0  447.90   33.41
  -4  18   0  379.27   25.26
   4  18   0  413.52   30.67
  -4  18   0  410.17   28.75
   4 -18   0  458.39   38.48
  -4  18   0  377.68   29.37
  -4 -18  -2  387.69   31.68
   4  18   2  354.79   28.81
  -4  18  -2  376.92   27.20
  -4 -19  11  110.12   17.48
  -4 -19  11   95.77   16.05
  -4 -19   9   -5.42    6.65
   4 -19  -9   18.43    9.79
   4 -19  -9    9.11    8.38
  -4 -19   9   -2.61    8.13
  -4  19   9   14.43    7.75
  -4 -19   9   25.39    9.27
  -4 -19   9    8.16    7.62
  -4 -19   7   60.96   14.06
   4 -19  -7   41.53   12.22
   4  19  -7   51.42   13.36
  -4  19   7   49.43   12.49
  -4 -19   7   39.00   11.14
  -4  19   7   35.34   10.81
  -4 -19   7   48.32   11.08
   4  19  -5  174.33   21.00
  -4  19   5  164.25   18.70
  -4 -19   5  185.09   21.42
  -4  19   5  145.52   17.74
   4 -19  -5  185.17   21.90
  -4 -19   5  205.65   23.05
  -4  19   3    8.16    7.60
  -4 -19   3   -2.30    7.70
   4 -19  -3   20.76   11.94
   4  19  -3   -3.97    6.98
  -4  19   3   -3.23    5.55
  -4 -19   3    8.35    7.51
  -4  19   3    4.35    7.27
   4 -19  -3  -12.01   10.18
  -4  19   1   44.38   11.45
   4 -19  -1   39.12   12.19
  -4 -19   1   47.10   14.31
   4  19  -1   65.89   13.91
  -4  19   1   41.04    9.74
  -4 -19   1   68.50   15.22
  -4  19   1   55.44   12.07
   4 -19  -1   45.46   14.32
  -4  19  -1   40.07   11.03
   4  19   1   41.91   12.31
  -4 -19  -1   41.26   13.22
   4 -20 -10  172.12   23.30
   4  20  -8  435.18   35.02
  -4 -20   8  432.01   33.70
   4 -20  -8  461.35   35.51
  -4 -20   8  457.51   34.85
  -4  20   6  707.45   41.00
  -4  20   6  662.84   39.36
   4  20  -6  733.38   44.28
  -4 -20   6  740.78   44.16
   4 -20  -6  707.83   44.00
  -4 -20   6  754.63   44.86
  -4  20   4  643.54   38.52
   4  20  -4  618.03   39.50
  -4  20   4  573.81   35.23
  -4 -20   4  671.54   42.33
   4 -20  -4  510.88   37.64
  -4 -20   4  611.81   41.27
  -4 -20   2  655.35   42.22
   4  20  -2  625.96   39.65
  -4  20   2  684.55   37.83
   4 -20  -2  595.58   45.54
  -4  20   2  714.48   40.41
   4 -20  -2  677.03   44.13
  -4 -20   2  720.89   46.02
  -4  20   0  570.47   36.32
  -4  21   5    5.89    7.61
  -4  21   3   32.97    9.89
  -4  21   1    2.95    6.51
  -4  22   2  278.79   25.53
  -5   0  17    0.02    7.37
  -5   0  17   15.19    9.30
   5   0 -17   15.40   10.09
  -5   0  15    7.50    6.01
   5   0 -15    5.22    8.44
  -5   0  15    6.24    7.10
   5   0 -13  -11.85    8.05
  -5   0  13    1.64    5.28
  -5   0  13    6.00    5.18
  -5   0  13    0.10    2.50
   5   0 -13    4.15    6.44
  -5   0  11    1.65    1.61
   5   0 -11    5.02    5.11
  -5   0  11   -5.12    4.60
  -5   0  11    2.47    3.58
   5   0 -11   -1.09    5.17
   5   0  -9    6.78    4.61
  -5   0   9   -5.49    4.92
   5   0  -9   -4.36    4.32
   5   0  -9    0.76    2.94
   5   0  -9   -0.98    4.07
  -5   0   7   -2.91    3.00
   5   0  -7   -0.06    3.42
   5   0  -7   10.98    6.13
  -5   0   7    2.92    5.32
  -5   0   7    5.47    2.48
   5   0  -7   -1.74    4.21
  -5   0   7    4.92    3.82
   5   0  -5    2.29    3.98
  -5   0   5    2.74    5.46
   5   0  -5   -0.76    1.64
   5   0  -5    3.64    3.95
  -5   0   5    0.68    3.15
   5   0  -5    1.07    3.47
   5   0  -3    6.61    2.86
  -5   0   3    1.73    2.37
   5   0  -3    5.05    3.21
  -5   0   3   -2.45    3.86
   5   0  -3    7.06    4.70
  -5   0   3    4.86    3.90
   5   0  -1    0.63    3.05
  -5   0   1   -0.57    3.84
  -5   0   1    2.90    1.33
  -5   0   1   -1.73    3.71
   5   0  -1    4.09    3.81
  -5   0  -1   -0.04    4.91
  -5   0  -1    2.88    3.45
   5   0   1    4.64    6.32
  -5   0  -1    0.42    4.11
  -5   0  -3    4.13    6.08
  -5   0  -3    1.11    4.87
  -5   0  -3   -3.89    5.97
  -5   0  -3    1.26    5.47
   5   0   3   -8.14    7.32
  -5   0  -5   11.01    7.23
  -5   0  -5    6.60    5.33
  -5   0  -5    3.49    8.12
  -5   0  -5    0.10    4.06
   5   0   5    1.49    6.42
  -5   0  -7    3.94    6.83
   5   1 -16  866.23   48.08
   5  -1 -16  899.30   49.01
  -5   1  16  875.79   44.33
  -5  -1  16  910.50   45.26
  -5   1  16  899.53   44.95
  -5  -1  16  830.59   44.09
  -5  -1  14 2387.05   72.78
   5   1 -14 2253.04   75.31
   5  -1 -14 2381.40   76.84
   5   1 -14 2267.05   71.46
   5  -1 -14 2353.05   72.52
  -5  -1  14 2274.03   63.47
  -5   1  14 2229.77   70.01
  -5  -1  12 1295.44   31.10
  -5   1  12 1285.12   25.64
   5   1 -12 1293.27   48.06
   5  -1 -12 1324.92   49.22
  -5   1  12 1263.44   44.31
  -5  -1  12 1208.38   44.40
   5   1 -12 1324.92   46.24
   5  -1 -12 1276.08   45.57
  -5   1  12 1328.73   44.23
  -5  -1  12 1288.80   43.98
   5  -1 -10 1601.76   46.00
   5   1 -10 1618.10   47.41
  -5   1  10 1646.37   49.82
  -5  -1  10 1540.19   50.42
   5   1 -10 1678.99   48.84
   5  -1 -10 1673.56   48.88
   5  -1 -10 1558.81   36.95
   5   1 -10 1671.21   37.10
   5   1 -10 1590.75   48.95
   5  -1 -10 1584.12   49.77
   5   1  -8 2493.75   57.25
   5   1  -8 2478.57   59.02
   5   1  -8 2427.81   59.59
   5  -1  -8 2378.51   57.44
  -5   1   8 2536.22   58.36
  -5  -1   8 2584.40   60.42
   5   1  -8 2482.99   46.07
  -5  -1   8 2462.94   67.51
   5  -1  -8 2549.27   67.44
   5   1  -8 2481.39   68.89
  -5   1   8 2526.66   65.62
   5  -1  -8 2484.81   60.49
   5   1  -8 2608.81   61.23
  -5  -1   6 1668.25   50.53
   5  -1  -6 1660.38   50.10
  -5   1   6 1439.47   46.63
   5   1  -6 1604.85   49.30
  -5   1   6 1600.18   41.93
   5  -1  -6 1660.95   42.42
  -5  -1   6 1600.77   43.78
   5   1  -6 1545.65   43.44
  -5  -1   6 1670.78   32.19
  -5   1   6 1685.09   37.73
   5  -1  -6 1554.30   43.78
   5   1  -6 1630.94   44.58
  -5   1   4 4258.05   94.63
  -5  -1   4 4330.39   94.57
   5  -1  -4 4221.70   94.66
   5   1  -4 4306.22   92.71
  -5  -1   4 4260.32   86.62
   5   1  -4 4265.94   90.18
   5  -1  -4 4355.00   84.17
  -5   1   4 4406.42   90.69
  -5  -1   4 4518.94   91.20
   5  -1  -2 2274.65   54.22
   5   1  -2 2247.22   51.53
  -5  -1   2 2255.29   57.33
  -5   1   2 2364.71   58.03
  -5   1   2 2275.89   43.78
  -5  -1   2 2189.14   45.71
   5   1  -2 2261.35   57.68
   5  -1  -2 2188.80   57.18
  -5   1   2 2281.53   57.12
   5  -1  -2 2292.34   53.42
  -5  -1   2 2294.93   56.60
  -5  -1   0  495.74   24.67
  -5   1   0  500.34   24.65
  -5  -1   0  449.76   21.11
  -5   1   0  498.60   20.76
  -5  -1   0  494.77   21.17
   5   1   0  469.23   24.59
   5  -1   0  444.21   23.80
   5   1   2 1145.09   44.52
   5  -1   2 1175.86   45.11
  -5  -1  -2 1170.02   44.78
  -5   1  -2 1163.41   44.63
  -5   1  -2 1160.88   42.17
  -5  -1  -2 1190.24   42.03
  -5   1  -2 1230.99   44.14
  -5   1  -2 1177.33   24.98
  -5  -1  -2 1106.58   38.50
  -5   1  -2 1172.21   40.43
  -5   1  -2 1171.79   30.36
  -5  -1  -2 1205.30   35.80
  -5   1  -4 1177.77   47.97
  -5  -1  -4 1176.27   46.83
  -5   1  -4 1202.78   43.74
  -5  -1  -4 1080.61   41.80
  -5  -1  -4 1128.33   39.88
  -5   1  -4 1074.78   40.39
  -5   1  -4 1072.11   47.64
  -5  -1  -4 1005.56   46.32
   5   1   4 1103.13   48.01
   5  -1   4 1116.81   48.09
  -5   1  -6  348.35   28.40
  -5  -1  -6  333.07   27.51
   5   1   6  278.41   26.15
   5  -1   6  359.46   29.19
  -5   1  -6  399.56   31.70
  -5  -1  -6  362.66   29.84
  -5   2  17   15.25    8.64
  -5  -2  17   -2.55    7.17
  -5   2  17    7.13   10.13
  -5  -2  17   13.40    9.20
   5   2 -17   16.97   12.07
   5  -2 -17   -0.27    8.72
  -5   2  15   51.74   10.78
  -5  -2  15   59.78   11.06
   5   2 -15   42.10   11.56
   5  -2 -15   65.80   13.92
  -5   2  15   53.97   11.71
  -5  -2  15   46.97   10.21
   5   2 -13  107.01   14.40
   5  -2 -13   57.25   10.99
  -5   2  13   84.53   11.63
  -5  -2  13   64.05   10.26
  -5  -2  13   86.41   10.99
   5  -2 -13   79.39   12.31
   5   2 -13   67.66   10.91
  -5   2  11  274.45    8.07
  -5  -2  11  267.58   12.56
   5  -2 -11  274.66    9.73
   5   2 -11  273.19   19.32
   5  -2 -11  288.27   20.78
  -5   2  11  300.51   18.57
   5   2 -11  271.66   18.45
   5   2 -11  287.95   18.86
   5  -2 -11  271.99   18.37
  -5   2  11  264.04   18.19
  -5  -2  11  277.03   19.35
   5  -2  -9  332.09   16.91
   5   2  -9  334.22   18.74
  -5   2   9  383.43   17.91
  -5  -2   9  358.48   22.41
  -5   2   9  374.22   20.86
   5   2  -9  351.22   18.99
   5  -2  -9  336.96   18.71
   5  -2  -9  380.59   20.97
   5   2  -9  356.18   15.22
   5   2  -9  358.29   18.78
   5   2  -7    5.43    2.42
   5   2  -7    2.82    3.04
   5   2  -7    7.54    2.86
  -5   2   7    7.82    3.12
   5   2  -7   12.55    5.00
   5  -2  -7    7.98    3.28
  -5  -2   7    9.40    4.12
   5  -2  -7   13.40    4.72
  -5  -2   7    4.35    5.09
  -5   2   7    6.47    3.21
   5   2  -7   -0.06    3.99
  -5   2   7   16.13    6.49
   5  -2  -7    8.31    4.53
   5   2  -7    4.44    3.98
  -5   2   7    9.95    3.75
  -5  -2   7   15.62    4.37
  -5   2   5   19.70    5.83
   5   2  -5   11.06    4.59
   5  -2  -5   19.17    4.32
   5  -2  -5   23.42    5.71
  -5  -2   5   22.99    6.46
   5   2  -5    7.08    4.48
  -5  -2   5   23.78    5.08
   5   2  -5   17.80    5.68
   5  -2  -5   18.31    4.35
  -5  -2   5    6.15    2.98
  -5   2   5   13.60    4.62
   5   2  -5   17.97    5.25
   5  -2  -5   18.16    4.67
   5   2  -3  218.46    9.98
   5   2  -3  207.67   16.19
   5  -2  -3  233.12   13.47
  -5  -2   3  204.94   10.74
   5   2  -3  227.54   14.69
   5  -2  -3  214.32   14.13
  -5   2   3  218.53   14.05
   5  -2  -3  211.98   14.36
  -5  -2   3  248.15   15.06
  -5  -2   3  231.22   14.08
  -5   2   3  253.22   14.71
  -5   2   1   12.81    3.86
  -5  -2   1   15.05    4.48
  -5  -2   1    8.40    2.91
   5   2  -1   17.40    4.25
  -5  -2   1    7.09    1.96
   5   2  -1   22.13    6.50
   5  -2  -1    6.59    3.89
  -5  -2   1    9.72    4.15
  -5   2   1    6.03    3.64
   5  -2   1  147.59   14.38
   5   2   1  163.66   14.92
  -5  -2  -1  143.06   14.30
  -5   2  -1  166.87   15.28
  -5   2  -1  149.02   13.75
  -5   2  -1  152.76   14.03
  -5  -2  -1  122.55   11.47
   5   2   1  152.42    8.09
  -5  -2  -1  150.85    8.29
  -5   2  -1  160.93   13.59
  -5   2  -1  157.17    8.35
  -5  -2  -1  152.23   11.66
  -5   2  -1  138.46    8.10
   5   2   3    7.26    6.03
   5  -2   3   20.72    8.08
  -5   2  -3   11.42    5.38
  -5  -2  -3   10.21    5.80
  -5   2  -3   16.29    6.05
  -5  -2  -3   14.18    6.54
  -5   2  -3   13.71    7.32
  -5   2  -3    3.40    4.33
  -5  -2  -3   21.93    6.10
  -5  -2  -3   12.78    4.03
  -5   2  -5   90.15   15.04
  -5  -2  -5   73.57   12.46
  -5   2  -5   71.40   11.24
  -5  -2  -5   60.72    9.75
  -5   2  -5   71.51   13.63
  -5  -2  -5   71.68   13.44
  -5   2  -5   62.18   10.13
   5   2   5   91.24   14.94
   5  -2   5   63.73   13.53
  -5   2  -7  -11.69    9.75
  -5  -2  -7    8.33    8.63
  -5   3  16  624.68   37.17
  -5  -3  16  639.88   38.71
  -5   3  16  567.66   35.88
  -5  -3  16  666.81   38.08
   5   3 -16  738.54   43.72
   5  -3 -16  643.07   41.37
   5   3 -14 1602.26   60.64
   5  -3 -14 1536.08   60.26
  -5   3  14 1529.58   54.57
  -5  -3  14 1611.88   49.78
  -5  -3  14 1578.34   57.77
  -5   3  14 1517.72   45.04
   5   3 -14 1550.98   56.43
   5  -3 -14 1615.51   57.64
  -5  -3  12 1005.42   22.16
  -5  -3  12  944.09   28.50
   5   3 -12  898.10   39.25
   5  -3 -12  991.58   42.56
  -5   3  12  976.71   37.19
  -5  -3  12 1003.65   40.04
   5   3 -12  992.92   39.09
   5  -3 -12  901.80   37.65
  -5  -3  12 1047.40   39.41
  -5   3  10 3680.81   67.70
  -5  -3  10 3842.79   67.61
   5  -3 -10 3666.22   89.94
   5   3 -10 3636.73   85.36
  -5   3  10 3605.28   81.55
   5   3 -10 3747.64   86.39
   5  -3 -10 3630.19   81.17
  -5  -3  10 3690.60   92.04
  -5   3  10 3658.39   86.93
   5   3 -10 3697.07   85.55
   5  -3 -10 3645.16   85.47
   5  -3  -8 6414.40  128.44
   5   3  -8 6487.02  128.77
   5   3  -8 6548.47  116.54
   5   3  -8 6656.49  125.43
   5   3  -8 6386.45  124.21
   5  -3  -8 6595.78  123.58
   5   3  -8 6514.64  130.06
  -5   3   8 6694.60  123.89
  -5   3   8 6679.94  128.46
  -5   3   8 6604.43  133.45
  -5  -3   8 6533.81  139.16
   5  -3  -6 2474.87   61.02
   5   3  -6 2530.43   61.40
   5   3  -6 2633.45   58.35
   5   3  -6 2526.37   62.52
   5   3  -6 2540.59   51.16
  -5  -3   6 2418.53   62.65
  -5  -3   6 2598.51   63.22
  -5   3   6 2651.65   57.29
   5   3  -6 2611.13   62.85
   5  -3  -6 2637.96   57.21
   5  -3  -6 2644.81   59.13
  -5   3   6 2716.48   59.49
   5  -3  -6 2750.40   65.76
  -5  -3   6 2642.56   66.92
  -5   3   6 2574.25   63.99
   5   3  -6 2681.41   66.01
  -5   3   4 3112.11   70.42
   5  -3  -4 3135.83   73.14
  -5  -3   4 3119.62   72.07
   5   3  -4 2964.74   74.35
   5   3  -4 3007.01   55.40
  -5  -3   4 3166.44   66.23
   5   3  -4 3140.67   71.60
   5  -3  -4 3127.15   68.16
  -5  -3   4 3088.77   69.29
  -5   3   4 3148.60   69.58
  -5  -3   2 6024.24  120.83
  -5   3   2 6002.89  120.92
  -5   3   2 5931.13  123.24
   5   3  -2 6009.02  110.58
  -5  -3   2 6072.87  110.82
   5   3  -2 6078.57  113.13
   5  -3  -2 5906.68  118.69
  -5  -3   2 6097.04  120.29
  -5   3   2 5902.06  115.38
   5   3  -2 5997.56  121.31
   5  -3  -2 6005.84  121.25
   5  -3   0 2082.73   59.17
   5   3   0 2193.16   60.18
  -5  -3   0 2233.56   60.18
  -5   3   0 2236.15   59.87
  -5  -3   0 2191.99   52.97
  -5   3   0 2078.75   58.89
   5   3   0 2148.21   54.64
  -5  -3   0 2052.39   45.93
   5   3   0 2226.19   47.71
  -5  -3   0 2060.82   47.28
  -5   3   0 2087.04   47.30
  -5   3   0 2084.86   57.52
  -5   3   0 2073.98   45.77
  -5  -3   0 2119.37   54.38
   5   3   2 2758.67   78.00
   5  -3   2 2845.47   78.87
  -5  -3  -2 2769.79   78.27
  -5   3  -2 2854.72   78.75
  -5   3  -2 2898.00   78.85
  -5   3  -2 2849.35   75.50
  -5  -3  -2 2829.83   72.72
   5   3   2 3021.60   59.89
  -5   3  -2 2932.97   55.56
  -5   3  -2 2856.78   74.44
  -5  -3  -2 2864.92   68.60
  -5  -3  -4 1871.54   58.42
  -5   3  -4 1869.83   60.09
  -5   3  -4 2026.94   67.97
  -5  -3  -4 1990.30   67.84
  -5   3  -4 1929.98   66.94
  -5  -3  -4 2066.47   63.98
  -5  -3  -4 1964.69   54.76
  -5   3  -4 1895.91   59.36
   5   3   4 1941.27   66.68
   5  -3   4 1975.21   67.18
  -5  -3  -6  513.25   33.36
  -5   3  -6  498.39   34.83
  -5   3  -6  473.59   28.45
  -5   3  -6  527.66   36.01
  -5  -3  -6  558.93   37.01
  -5   3  -6  565.20   30.58
   5   3   6  558.71   36.82
   5  -3   6  530.75   35.80
  -5   4  17   19.76    9.37
  -5  -4  17    6.74    6.77
  -5   4  17   -6.27    7.29
  -5  -4  17   11.10    8.95
   5   4 -17   -8.71    9.89
   5  -4 -17   -2.06    8.85
  -5   4  15   59.80   11.35
  -5  -4  15   39.83   10.47
   5   4 -15   63.90   13.50
   5  -4 -15   65.80   12.84
  -5   4  15   63.88   12.02
  -5  -4  15   61.36   11.49
   5  -4 -13  138.33   15.21
   5   4 -13  169.13   16.35
  -5  -4  13  155.54    8.33
   5   4 -13  150.95   16.74
   5  -4 -13  146.06   17.13
  -5   4  13  150.55   14.58
  -5  -4  13  123.65   15.14
  -5   4  13  145.29   12.36
  -5  -4  13  154.28   14.68
  -5  -4  11  140.36    7.64
  -5  -4  11  146.85   10.33
   5   4 -11  156.14   14.72
  -5  -4  11  147.91   10.25
   5  -4 -11  188.44   17.13
  -5   4  11  149.32   12.61
   5   4 -11  169.21   15.08
   5   4 -11  150.52   13.96
   5  -4 -11  177.62   14.85
  -5  -4  11  169.21   15.94
  -5  -4   9  291.73   15.86
   5   4  -9  284.30   16.08
   5   4  -9  288.78   14.45
  -5  -4   9  266.08   14.82
   5  -4  -9  299.35   11.06
  -5  -4   9  276.16   11.75
  -5   4   9  272.30   11.21
   5  -4  -9  273.43   14.46
   5   4  -9  301.52   18.19
  -5   4   9  268.11   14.45
  -5  -4   9  258.36   19.43
  -5   4   9  296.19   18.49
   5   4  -9  280.54   16.76
   5  -4  -9  270.26   16.40
  -5   4   7  197.82   13.51
  -5  -4   7  206.49   13.71
   5   4  -7  209.30   13.77
   5  -4  -7  207.72   13.73
  -5   4   7  214.72   11.95
   5   4  -7  222.71   11.54
   5   4  -7  224.78   13.92
   5   4  -7  222.59   10.69
  -5  -4   7  221.08   14.23
  -5   4   7  213.66   11.60
   5  -4  -7  190.30   10.76
   5   4  -7  191.64   13.88
  -5   4   7  213.85   13.78
  -5   4   7  220.90   15.33
  -5  -4   7  216.90   16.36
   5  -4  -5  170.70   12.56
   5   4  -5  199.43   13.38
  -5   4   5  187.84   12.66
   5   4  -5  183.52   12.94
   5   4  -5  217.69   14.97
  -5  -4   5  199.01   12.60
  -5  -4   5  212.57   13.51
  -5   4   5  218.22   13.60
   5   4  -5  196.18   14.40
   5  -4  -5  187.35   10.83
  -5   4   5  213.16   13.65
   5  -4  -5  186.31   12.64
   5  -4  -5  217.29   14.54
  -5  -4   5  225.99   15.26
  -5   4   5  194.02   13.47
  -5   4   3   17.22    6.01
   5   4  -3   21.78    2.58
   5   4  -3   14.28    4.14
  -5  -4   3   20.47    3.83
  -5  -4   3   14.13    5.00
   5  -4  -3   18.79    4.83
   5  -4  -3   16.08    4.54
  -5   4   3   19.47    4.73
   5   4  -3   19.24    5.35
   5  -4  -3   15.22    4.69
  -5  -4   3   23.68    5.29
  -5   4   3   25.56    5.19
   5   4  -1  338.83   19.48
   5  -4  -1  340.36   19.56
  -5  -4   1  341.96   19.63
  -5   4   1  376.40   20.20
  -5  -4   1  361.61   15.23
  -5   4   1  335.92   19.95
   5   4  -1  362.65   16.10
   5   4  -1  353.72   15.85
  -5  -4   1  362.48   15.06
  -5  -4   1  348.92   15.57
  -5   4   1  354.60   19.84
  -5   4   1  335.72   15.73
   5  -4  -1  349.82   16.33
  -5   4   1  330.04   14.21
  -5   4  -1   59.58    9.67
  -5  -4  -1   68.83    8.39
  -5   4  -1   67.64    9.61
  -5  -4  -1   60.13    9.32
   5   4   1   58.33    6.26
  -5   4  -1   68.32   10.46
  -5  -4  -1   61.26    5.79
  -5   4  -1   58.26    5.60
   5   4   1   68.70   10.66
   5  -4   1   57.92    9.43
   5   4   3    7.88    5.27
   5  -4   3   11.27    7.51
  -5   4  -3   10.20    5.21
  -5  -4  -3    5.36    4.83
  -5  -4  -3    2.14    5.15
  -5   4  -3   -5.97    5.60
   5   4   3   12.72    3.67
  -5   4  -3    9.03    5.68
  -5  -4  -3   10.35    5.17
  -5   4  -5  102.91   15.87
  -5  -4  -5   92.88   14.20
  -5   4  -5   80.40   12.62
  -5   4  -5  104.41   15.96
  -5  -4  -5   88.08   14.44
  -5   4  -5   83.51   12.20
   5   4   5  109.92   15.83
   5  -4   5   94.22   15.46
  -5  -4  -7   41.96   11.33
  -5  -5  16  683.32   40.75
  -5   5  16  736.06   39.99
  -5   5  16  733.16   40.57
  -5  -5  16  643.99   37.92
   5   5 -16  706.90   43.70
   5  -5 -16  677.25   42.89
   5   5 -14  762.37   40.46
   5  -5 -14  709.26   40.13
  -5   5  14  718.19   35.33
  -5  -5  14  775.21   33.11
  -5  -5  14  768.22   39.26
  -5   5  14  818.60   30.87
   5   5 -14  748.01   37.36
   5  -5 -14  763.85   37.78
   5   5 -12 1313.19   45.84
   5  -5 -12 1310.35   45.82
  -5  -5  12 1311.40   32.23
   5   5 -12 1299.62   47.85
  -5  -5  12 1298.27   35.81
   5  -5 -12 1217.11   49.20
  -5  -5  12 1232.96   46.54
  -5   5  12 1242.20   40.44
  -5   5  12 1184.68   24.80
  -5  -5  12 1273.32   46.20
  -5   5  12 1342.93   43.42
   5   5 -10 1173.90   39.21
   5  -5 -10 1183.94   39.64
  -5   5  10 1148.68   24.99
   5  -5 -10 1160.51   29.52
  -5  -5  10 1160.27   30.35
  -5  -5  10 1251.60   35.80
   5   5 -10 1201.40   39.70
  -5   5  10 1139.78   35.36
   5   5 -10 1138.91   40.27
  -5   5  10 1136.17   37.80
  -5  -5  10 1186.21   45.11
  -5  -5   8 4008.04   79.11
  -5  -5   8 3831.69   83.94
   5   5  -8 3768.78   79.29
   5   5  -8 3962.50   83.31
  -5  -5   8 3980.41   78.78
  -5   5   8 3764.64   76.25
   5  -5  -8 3859.84   76.89
   5   5  -8 3864.98   87.50
  -5   5   8 3984.62   78.37
  -5  -5   8 3979.53   93.08
   5   5  -8 3789.67   83.95
   5  -5  -8 3812.90   84.22
   5  -5  -6 2513.93   60.78
   5   5  -6 2527.92   60.67
   5   5  -6 2543.49   59.59
  -5   5   6 2616.54   59.01
   5   5  -6 2536.96   48.11
  -5  -5   6 2607.01   63.71
   5  -5  -6 2509.54   53.92
   5   5  -6 2452.55   63.16
   5  -5  -6 2576.94   63.17
  -5   5   6 2671.89   63.80
  -5  -5   6 2647.79   65.85
  -5   5   6 2581.20   63.17
  -5   5   4 3222.53   70.55
  -5  -5   4 3119.14   70.41
  -5   5   4 3100.81   72.52
  -5  -5   4 3183.55   77.12
  -5  -5   4 3141.57   68.95
   5   5  -4 3224.52   71.40
   5   5  -4 3215.27   74.80
   5  -5  -4 3158.22   73.71
  -5   5   4 3030.41   71.73
  -5   5   4 3229.22   71.23
   5  -5  -4 3199.30   72.46
  -5  -5   4 3126.74   74.32
  -5   5   4 3084.62   70.04
  -5  -5   2 3347.70   76.08
  -5   5   2 3296.83   75.85
  -5  -5   2 3326.59   63.38
  -5   5   2 3353.32   78.76
   5   5  -2 3253.94   64.90
   5   5  -2 3386.14   72.39
   5  -5  -2 3372.47   76.79
  -5  -5   2 3312.73   70.38
  -5   5   2 3380.61   62.69
   5   5  -2 3332.87   76.81
  -5  -5   2 3203.46   71.29
  -5   5   2 3169.80   71.55
  -5   5   2 3389.87   78.43
   5  -5  -2 3476.24   75.75
  -5   5   2 3373.17   69.40
  -5   5   2 3345.47   72.32
   5   5   0 2617.94   68.59
   5  -5   0 2676.71   68.47
  -5  -5   0 2529.56   67.40
  -5   5   0 2628.84   67.62
  -5   5   0 2740.66   69.54
  -5  -5   0 2595.12   59.27
   5   5   0 2518.25   61.69
   5   5   0 2626.69   58.88
  -5  -5   0 2420.66   57.24
  -5   5   0 2614.98   57.10
  -5  -5   0 2434.21   56.73
  -5   5   0 2524.84   67.51
   5  -5   0 2596.71   54.40
  -5  -5  -2 1992.63   62.87
  -5   5  -2 1975.54   62.42
  -5   5  -2 2049.31   61.77
  -5  -5  -2 2045.68   56.73
   5   5   2 2086.04   50.02
  -5   5  -2 2087.11   44.95
  -5   5  -2 1947.55   60.16
   5   5   2 2041.50   63.26
   5  -5   2 2048.31   63.40
  -5   5  -4 1234.85   47.17
  -5   5  -4 1265.65   51.78
  -5  -5  -4 1213.67   51.14
  -5  -5  -4 1174.98   45.89
  -5   5  -4 1224.09   46.99
   5   5   4 1270.99   52.11
   5  -5   4 1186.96   50.47
  -5   5  -6  728.85   36.74
  -5  -5  -6  760.07   39.93
  -5   5  -6  711.30   41.70
  -5  -5  -6  608.41   39.22
  -5   5  -6  675.19   35.67
   5   5   6  709.31   42.20
   5  -5   6  721.17   42.35
  -5   6  17   25.06    8.96
  -5   6  17   17.56    8.43
  -5  -6  17   15.01    8.83
   5   6 -17    7.75    7.72
  -5   6  15   17.60    8.07
  -5  -6  15    6.34    8.47
  -5   6  15    3.38    6.30
  -5  -6  15   -2.56    6.41
   5  -6 -15   -2.97    6.63
   5   6 -15   11.18    8.94
   5   6 -13  333.31   23.20
   5  -6 -13  318.39   22.96
  -5  -6  13  312.98   14.90
   5   6 -13  270.16   22.62
   5  -6 -13  319.48   25.43
  -5  -6  13  337.46   16.75
  -5  -6  13  312.45   23.39
  -5   6  13  313.92   18.75
  -5  -6  13  318.29   21.63
  -5   6  13  335.97   21.71
   5   6 -11   19.39    6.07
   5  -6 -11   18.53    6.24
  -5  -6  11   27.23    4.34
   5   6 -11   21.80    6.73
  -5  -6  11   19.79    5.12
   5  -6 -11   13.34    6.98
  -5   6  11   23.22    5.44
   5   6 -11   18.36    6.90
  -5   6  11    7.75    4.39
  -5   6  11   24.51    3.09
  -5  -6  11   30.10    7.90
   5   6  -9  223.18   14.85
   5  -6  -9  193.52   14.19
   5  -6  -9  196.59   11.29
  -5   6   9  207.21    9.88
  -5  -6   9  229.49   12.72
  -5  -6   9  209.45   14.01
   5   6  -9  215.90   14.10
  -5  -6   9  230.54   13.69
  -5   6   9  211.39   12.04
   5   6  -9  219.20   16.11
  -5   6   9  214.13   11.82
  -5   6   9  208.12   11.18
  -5   6   9  211.36   15.00
  -5  -6   9  221.30   17.90
   5  -6  -7  608.98   24.10
   5   6  -7  627.64   24.28
  -5   6   7  654.17   25.43
  -5  -6   7  675.16   25.72
   5   6  -7  651.98   23.76
  -5  -6   7  670.15   24.50
  -5   6   7  607.82   21.88
  -5  -6   7  606.99   25.78
   5   6  -7  643.39   19.83
  -5  -6   7  636.42   19.09
  -5   6   7  619.14   19.76
   5   6  -7  628.02   26.87
   5  -6  -7  605.86   18.84
  -5  -6   7  627.55   18.49
  -5   6   7  606.49   22.72
  -5   6   7  579.25   25.51
  -5  -6   7  579.56   27.16
  -5  -6   5    2.99    3.00
  -5   6   5    7.89    3.64
   5  -6  -5   10.02    4.18
   5   6  -5    5.04    3.65
  -5   6   5   12.46    4.81
  -5  -6   5    7.71    5.31
   5   6  -5    7.18    4.75
   5   6  -5   10.26    5.71
   5  -6  -5    8.19    2.86
  -5   6   5    3.48    3.47
  -5   6   5    5.22    3.19
  -5  -6   5   -0.36    3.80
   5   6  -5    5.03    2.01
   5  -6  -5    4.48    5.06
   5   6  -3   29.58    6.14
   5  -6  -3   40.29    6.55
  -5  -6   3   29.11    5.14
  -5  -6   3   42.71    6.23
  -5   6   3   39.35    6.24
  -5   6   3   38.16    7.08
  -5  -6   3   31.48    6.86
   5   6  -3   33.80    6.01
  -5   6   3   35.57    4.88
  -5   6   3   34.78    4.89
   5   6  -3   37.55    7.44
  -5   6   3   26.19    5.75
  -5   6   3   39.90    7.37
   5  -6  -3   41.67    6.43
   5  -6  -3   34.47    7.48
   5  -6  -1  683.19   28.38
   5   6  -1  670.87   28.36
  -5  -6   1  660.17   27.69
  -5   6   1  671.74   27.78
  -5   6   1  626.54   28.72
  -5  -6   1  670.80   20.94
   5   6  -1  661.18   24.96
  -5   6   1  671.31   16.93
  -5   6   1  646.06   28.83
  -5   6   1  636.08   23.60
   5  -6  -1  653.59   25.12
  -5  -6  -1  167.61   15.27
  -5   6  -1  187.16   15.73
  -5   6  -1  181.39   16.42
  -5  -6  -1  190.30   13.17
   5   6   1  182.08   12.25
  -5  -6  -1  140.79    9.97
  -5   6  -1  169.46   10.60
  -5   6  -1  134.19   13.80
   5  -6   1  154.25   14.80
   5   6   1  166.30   15.50
  -5   6  -3   82.92   12.04
  -5  -6  -3  122.72   12.94
  -5  -6  -3   97.52   13.66
  -5   6  -3  120.98   15.08
   5   6   3  133.04   10.76
  -5   6  -3  111.29   13.30
   5   6   3  120.10   15.11
   5  -6   3  123.23   15.46
  -5   6  -5   -8.04    5.85
  -5  -6  -5    1.93    5.19
   5   6   5    1.91    6.33
   5  -6   5   -2.24    6.59
  -5  -6  -5    3.13    6.41
  -5   6  -5   14.75    8.21
  -5   6  -5    5.75    6.16
  -5   7  18  579.91   37.49
   5   7 -16  685.82   43.46
   5  -7 -16  802.05   47.13
  -5  -7  16  661.32   40.49
  -5   7  16  702.78   39.14
  -5   7  16  696.58   39.87
  -5  -7  16  721.30   39.83
   5   7 -14 1239.23   53.33
   5  -7 -14 1110.29   52.44
  -5  -7  14 1247.78   51.82
  -5   7  14 1120.94   39.60
  -5   7  14 1199.57   45.99
  -5  -7  14 1192.74   43.74
  -5   7  14 1168.42   47.77
  -5  -7  14 1147.47   46.84
   5   7 -12 2072.21   61.50
   5  -7 -12 2065.49   61.47
  -5  -7  12 2091.65   50.50
   5  -7 -12 1995.77   68.01
  -5  -7  12 2030.48   53.40
   5   7 -12 1985.57   63.79
  -5  -7  12 2019.33   64.33
  -5   7  12 1985.70   56.29
  -5  -7  12 2115.22   65.24
  -5   7  12 1979.54   56.29
   5   7 -10 1847.27   52.75
   5  -7 -10 1908.58   53.35
  -5  -7  10 1872.06   47.24
  -5   7  10 1866.45   39.07
   5  -7 -10 1922.59   47.12
  -5  -7  10 1857.77   51.28
   5   7 -10 1849.94   53.80
   5   7 -10 1855.54   56.26
  -5   7  10 1910.70   46.80
  -5   7  10 1897.73   41.55
  -5   7  10 1849.85   53.13
  -5   7  10 1875.95   47.29
  -5  -7  10 1885.47   60.10
   5   7  -8  602.59   24.06
   5  -7  -8  551.25   23.26
   5  -7  -8  571.13   22.27
  -5   7   8  599.07   20.73
  -5  -7   8  584.26   23.12
  -5  -7   8  584.35   25.48
   5   7  -8  589.84   22.10
  -5  -7   8  627.28   21.40
  -5   7   8  584.41   18.24
  -5   7   8  581.86   19.14
   5   7  -8  586.15   26.85
  -5   7   8  582.33   25.74
  -5   7   8  582.37   21.54
  -5  -7   8  596.98   21.82
  -5  -7   8  587.78   27.91
   5  -7  -6 1249.57   37.36
   5   7  -6 1240.83   37.20
  -5  -7   6 1240.92   39.41
  -5   7   6 1227.72   36.44
  -5  -7   6 1295.31   41.60
  -5  -7   6 1275.86   26.76
   5   7  -6 1316.68   42.04
   5  -7  -6 1256.44   29.31
   5   7  -6 1293.60   41.61
  -5   7   6 1296.86   37.57
  -5   7   6 1261.94   39.68
   5  -7  -6 1212.37   42.19
  -5  -7   6 1269.81   42.18
  -5  -7   4 1382.08   38.99
  -5   7   4 1395.27   38.58
  -5   7   4 1325.83   41.13
  -5  -7   4 1369.30   44.80
  -5   7   4 1379.74   36.83
   5   7  -4 1413.00   42.18
   5   7  -4 1341.48   43.37
  -5   7   4 1373.87   40.58
   5   7  -4 1378.26   33.65
  -5   7   4 1321.12   41.29
   5  -7  -4 1338.01   44.89
  -5   7   4 1304.30   31.55
   5  -7  -4 1448.09   41.65
  -5  -7   2 1127.96   36.93
  -5   7   2 1163.87   36.88
  -5   7   2 1193.61   40.57
  -5  -7   2 1211.24   26.27
  -5  -7   2 1244.29   44.38
   5   7  -2 1174.89   37.07
  -5   7   2 1182.71   29.48
   5   7  -2 1139.83   38.24
   5  -7  -2 1176.46   38.13
  -5   7   2 1202.36   36.23
  -5   7   2 1143.85   39.96
   5  -7  -2 1196.18   43.91
   5  -7  -2 1206.27   36.60
  -5   7   2 1119.86   33.53
   5  -7   0  432.24   23.73
   5   7   0  466.38   24.38
  -5  -7   0  419.98   22.87
  -5   7   0  438.09   23.35
  -5   7   0  407.54   23.59
  -5  -7   0  442.22   18.30
   5   7   0  405.18   19.93
  -5   7   0  435.94   12.21
  -5   7   0  425.26   18.91
  -5   7   0  407.73   23.76
   5  -7   0  442.71   18.74
  -5  -7  -2  465.25   27.09
  -5   7  -2  437.75   26.36
  -5   7  -2  446.85   26.53
  -5  -7  -2  431.58   22.07
   5   7   2  449.73   21.30
  -5   7  -2  428.86   17.76
  -5   7  -2  460.02   26.95
   5  -7   2  444.06   26.82
   5   7   2  465.57   27.37
  -5   7  -4  377.56   25.86
  -5   7  -4  412.03   28.59
  -5  -7  -4  431.72   29.20
  -5  -7  -4  409.51   25.32
  -5   7  -4  398.19   26.59
   5   7   4  354.98   27.04
   5  -7   4  430.94   29.26
  -5   7  -6  547.59   32.74
  -5   7  -6  532.32   36.38
  -5  -7  -6  494.08   35.34
  -5   7  -6  515.76   32.51
   5   7   6  532.46   36.84
   5  -7   6  502.19   35.54
  -5   8  17   10.37    8.09
  -5  -8  17    3.62    7.61
  -5   8  17    6.99    7.79
  -5   8  15    3.38    6.10
  -5  -8  15    6.42    8.05
   5   8 -15   -1.79    6.70
   5  -8 -15   11.31    9.55
  -5   8  15    1.32    5.63
  -5  -8  15    2.19    6.05
   5  -8 -13    5.41    5.62
   5   8 -13   12.10    7.21
  -5  -8  13    8.99    4.38
   5   8 -13    2.00    5.49
  -5  -8  13    9.79    4.57
   5  -8 -13   10.47    7.89
  -5   8  13    1.91    4.23
  -5  -8  13    4.34    5.90
  -5   8  13    9.94    4.91
  -5  -8  13   12.92    6.40
  -5  -8  11  147.20   11.47
   5  -8 -11  120.79   10.78
  -5  -8  11  138.87   12.34
   5   8 -11  164.32   15.72
   5  -8 -11  124.51   12.73
   5   8 -11  128.96   12.68
   5   8 -11  133.54   14.61
  -5   8  11  136.37    6.59
  -5   8  11  145.29   13.38
  -5   8  11  141.58   11.62
  -5  -8  11  148.98   16.11
   5   8  -9  142.82   11.96
   5  -8  -9  143.93   12.26
   5   8  -9  153.68   12.34
  -5  -8   9  151.98   11.49
  -5  -8   9  118.60   11.68
   5  -8  -9  133.39   10.79
  -5   8   9  158.55    9.51
  -5  -8   9  144.15   11.50
  -5   8   9  159.07    9.41
   5   8  -9  138.17   13.39
  -5   8   9  156.68    9.88
  -5   8   9  171.98   14.52
  -5   8   9  146.27    9.14
  -5  -8   9  135.40   14.28
   5  -8  -7  188.52   12.79
   5   8  -7  172.43   12.26
  -5   8   7  170.14   11.70
  -5  -8   7  208.34   14.31
  -5  -8   7  178.08   14.59
  -5  -8   7  203.99   10.07
   5  -8  -7  193.87    7.92
   5   8  -7  206.31   15.60
  -5   8   7  194.70   14.49
  -5   8   7  219.86   13.31
  -5  -8   7  200.67   11.14
  -5   8   7  202.42    7.19
  -5  -8   7  215.16   16.43
  -5  -8   5   89.33    8.61
  -5   8   5   75.61    7.97
   5  -8  -5   78.13    8.27
   5   8  -5   77.54    9.00
  -5   8   5   72.26    8.67
  -5  -8   5   58.44    9.02
  -5  -8   5   69.98    9.55
   5   8  -5   71.83    9.50
  -5   8   5   68.74    8.11
   5  -8  -5   78.68    5.87
   5   8  -5   81.42    9.84
  -5   8   5   78.36    8.85
  -5   8   5   71.12    8.66
   5   8  -5   73.13    6.43
   5  -8  -5   69.81   10.49
  -5   8   5   73.66    4.16
  -5  -8   3  180.29   12.46
  -5   8   3  171.50   11.96
  -5   8   3  171.08   13.86
  -5  -8   3  193.51   16.47
   5   8  -3  169.16   13.44
  -5   8   3  173.41   10.76
   5   8  -3  191.55   15.31
  -5   8   3  167.97   12.83
   5  -8  -3  162.70   15.42
  -5   8   3  183.85   14.71
   5   8  -3  159.63   11.30
  -5   8   3  160.20    9.45
   5  -8  -3  179.89   12.85
   5   8  -1   60.95    9.07
   5  -8  -1   76.84    9.78
  -5   8   1   63.28    9.78
  -5  -8   1   63.42   10.53
  -5  -8   1   66.53    5.80
  -5  -8   1   55.19    8.14
  -5   8   1   55.77    7.83
   5   8  -1   51.96    7.98
  -5   8   1   60.57    5.34
  -5   8   1   50.56    8.71
  -5   8   1   54.68    7.19
   5  -8  -1   60.45    7.46
   5  -8  -1   59.43   11.62
  -5   8  -1    4.54    4.47
  -5  -8  -1    3.69    3.46
  -5  -8  -1   -2.39    4.30
  -5   8  -1   -4.61    5.74
   5   8   1    3.91    3.75
  -5   8  -1   11.54    6.48
  -5   8  -1   10.25    4.97
   5   8   1    4.53    5.28
   5  -8   1    0.54    4.63
  -5   8  -3   84.50   12.28
  -5  -8  -3   93.86   11.33
   5   8   3  101.14   10.91
  -5   8  -3   86.02   13.43
   5   8   3  110.86   14.96
   5  -8   3  108.16   14.16
  -5  -8  -3   97.45   13.56
  -5   8  -3  111.39   14.28
  -5   8  -5   29.78    9.37
   5   8   5   43.07   10.97
   5  -8   5   39.08   11.42
  -5   8  -5   22.93    8.88
  -5   8  -5   22.70    8.91
  -5  -8  -5   20.35    8.60
   5   9 -16 1024.71   54.68
   5  -9 -16 1013.24   54.61
  -5   9  16  915.53   47.84
  -5   9  16  959.93   47.33
  -5  -9  16  983.94   47.17
  -5  -9  16  928.17   49.35
   5   9 -14  739.90   40.75
   5  -9 -14  739.16   42.74
  -5  -9  14  722.66   39.60
  -5   9  14  724.73   38.75
  -5   9  14  692.18   30.92
  -5   9  14  650.08   34.87
  -5  -9  14  677.47   35.13
  -5   9  14  710.90   33.82
  -5  -9  12 1112.35   37.11
   5  -9 -12 1101.27   49.65
  -5  -9  12 1154.36   39.74
   5   9 -12 1213.60   47.47
  -5  -9  12 1174.65   46.98
  -5   9  12 1061.62   39.73
  -5  -9  12 1171.49   47.77
  -5   9  12 1072.09   37.56
   5   9 -12 1175.25   43.13
   5  -9 -12 1098.79   42.25
   5   9 -10 1081.37   37.37
   5  -9 -10 1092.05   37.50
  -5  -9  10 1047.08   35.56
  -5   9  10 1057.52   28.03
   5   9 -10 1100.37   39.61
   5  -9 -10 1090.08   36.16
  -5  -9  10 1124.03   39.32
  -5   9  10 1058.50   30.41
   5   9 -10 1093.22   41.93
  -5   9  10 1111.72   39.44
  -5   9  10 1048.57   28.23
  -5  -9  10 1107.46   43.47
  -5   9  10 1070.88   31.26
   5   9  -8 1747.32   46.94
   5  -9  -8 1751.84   47.21
   5   9  -8 1737.25   46.16
   5  -9  -8 1748.21   49.32
  -5   9   8 1709.39   44.46
  -5  -9   8 1809.21   50.57
  -5  -9   8 1829.17   53.74
  -5  -9   8 1804.58   44.32
  -5   9   8 1773.32   53.46
  -5   9   8 1789.92   37.34
   5   9  -8 1726.76   53.03
  -5  -9   8 1798.91   47.54
  -5   9   8 1727.30   45.07
  -5   9   8 1707.01   51.85
  -5  -9   8 1851.40   56.08
  -5   9   8 1822.66   36.06
  -5   9   6 2140.60   55.53
  -5  -9   6 2186.66   59.76
  -5  -9   6 2175.13   61.44
  -5  -9   6 2305.45   44.16
  -5  -9   6 2164.87   54.32
  -5   9   6 2161.05   53.66
  -5   9   6 2154.28   57.18
   5   9  -6 2159.35   61.52
   5  -9  -6 2150.19   39.35
   5   9  -6 2143.21   59.97
  -5   9   6 2209.47   59.27
  -5   9   6 2137.52   55.66
  -5  -9   6 2228.20   50.18
   5  -9  -6 2214.89   65.18
   5  -9  -6 2141.30   53.33
   5   9  -6 2156.54   53.26
   5  -9  -4 1078.55   34.98
   5   9  -4 1065.77   34.87
  -5   9   4 1093.59   37.85
  -5  -9   4 1111.43   41.65
   5   9  -4 1105.26   38.87
  -5   9   4 1161.93   25.70
  -5   9   4 1100.12   33.82
  -5   9   4 1047.18   36.78
   5   9  -4 1057.31   39.60
  -5   9   4 1094.59   38.30
   5  -9  -4 1118.05   43.20
   5   9  -4 1185.24   33.12
  -5  -9   4 1104.94   33.46
  -5   9   4 1099.84   33.28
  -5  -9   2  671.79   26.58
  -5   9   2  667.91   26.19
  -5   9   2  679.22   30.37
  -5  -9   2  688.06   17.59
  -5  -9   2  675.79   32.82
   5   9  -2  641.67   27.87
  -5   9   2  682.83   23.06
  -5   9   2  637.26   23.19
   5   9  -2  684.20   27.88
   5  -9  -2  707.85   27.86
  -5   9   2  686.96   27.50
   5   9  -2  649.15   30.83
   5  -9  -2  704.91   34.84
  -5   9   2  666.93   30.53
   5  -9  -2  710.21   27.07
  -5  -9   0 1611.67   50.89
  -5   9   0 1724.87   51.62
  -5   9   0 1724.97   55.72
  -5  -9   0 1774.77   43.19
  -5   9   0 1732.02   39.44
   5   9   0 1676.71   50.19
  -5   9   0 1764.66   48.01
  -5   9   0 1723.30   56.36
   5  -9   0 1598.01   61.00
   5   9   0 1784.27   53.80
   5  -9   0 1672.75   52.13
  -5   9  -2  685.91   33.61
  -5  -9  -2  726.16   34.56
  -5   9  -2  701.93   35.43
  -5  -9  -2  749.05   29.57
  -5   9  -2  790.65   27.62
   5   9   2  681.10   30.03
  -5   9  -2  726.17   35.99
   5   9   2  702.13   34.49
   5  -9   2  694.87   34.11
  -5   9  -4  470.24   29.90
  -5   9  -4  433.20   29.38
   5   9   4  447.24   30.52
   5  -9   4  433.67   29.90
  -5  -9  -4  495.82   31.29
  -5   9  -4  451.21   29.97
  -5   9  -6  484.65   32.54
  -5  -9  -6  522.55   36.45
  -5   9  -6  552.29   36.67
  -5   9  -6  595.99   36.59
   5   9   6  554.61   37.56
   5  -9   6  527.14   36.43
  -5 -10  15  156.74   19.69
  -5  10  15  107.87   14.93
  -5 -10  15  137.28   16.59
   5  10 -15  156.37   20.42
   5 -10 -15  133.85   18.01
  -5  10  13   13.23    5.81
  -5 -10  13   15.89    5.81
  -5 -10  13   20.99    5.81
   5  10 -13   40.64   10.83
   5 -10 -13   35.14   11.30
  -5 -10  13   39.88    7.86
  -5  10  13   15.75    8.28
  -5 -10  13   26.54    8.52
  -5  10  13   23.13    6.83
  -5 -10  13   17.49    7.04
  -5 -10  11  405.18   21.71
   5 -10 -11  419.10   22.49
   5  10 -11  425.58   25.55
  -5 -10  11  390.43   22.92
  -5  10  11  392.66   26.08
   5  10 -11  440.28   26.89
  -5  10  11  404.82   23.49
  -5 -10  11  397.00   26.61
   5  10 -11  465.55   24.35
   5 -10 -11  404.34   22.93
   5  10  -9  148.64   12.02
   5 -10  -9  125.77   11.19
  -5 -10   9  156.34   13.39
   5 -10  -9  133.23   12.27
   5  10  -9  125.44   12.08
  -5  10   9  136.54    9.96
  -5 -10   9  147.97   13.94
  -5  10   9  129.24   13.83
  -5  10   9  151.23    8.11
   5  10  -9  128.35   13.83
  -5  10   9  154.23   14.31
  -5  10   9  150.60   10.43
  -5 -10   9  127.33   12.38
  -5 -10   9  157.70   15.48
   5 -10  -7    5.66    3.58
   5  10  -7    9.25    3.99
  -5  10   7   11.37    4.59
  -5 -10   7    7.14    4.81
  -5 -10   7   12.34    5.76
  -5 -10   7    8.63    2.59
   5  10  -7    5.27    5.32
  -5  10   7   10.01    4.95
   5  10  -7   14.77    6.64
  -5  10   7   -0.24    4.06
  -5  10   7   10.89    4.63
  -5 -10   7    0.46    5.10
  -5 -10   7   14.63    4.05
  -5  10   5  129.27    9.98
   5 -10  -5  137.98   10.77
   5  10  -5  139.86   10.91
  -5 -10   5  132.57   10.38
  -5  10   5  126.46   11.87
  -5 -10   5  141.49   13.96
  -5 -10   5  146.27    6.13
  -5 -10   5  135.69   13.58
   5  10  -5  154.34   14.48
  -5  10   5  132.41   11.67
   5 -10  -5  138.28    5.67
   5  10  -5  129.34   13.27
  -5  10   5  128.19   12.45
  -5  10   5  142.19   12.89
   5  10  -5  136.06   10.29
   5 -10  -5  130.98   14.86
  -5 -10   3   48.64    6.60
  -5  10   3   63.46    7.56
  -5 -10   3   46.99    6.70
  -5  10   3   46.91    7.71
  -5 -10   3   51.19    9.63
  -5 -10   3   52.33    3.14
  -5  10   3   49.32    6.36
   5  10  -3   50.47    8.43
  -5  10   3   53.83    5.25
   5  10  -3   59.83    9.58
  -5  10   3   58.25    9.45
  -5  10   3   39.63    6.66
   5 -10  -3   55.17   10.87
   5  10  -3   34.91    6.04
   5  10  -1   36.21    7.59
   5 -10  -1   27.18    6.44
  -5 -10   1   28.50    6.26
  -5  10   1   25.50    5.41
  -5  10   1   31.85    7.53
  -5 -10   1   27.38    8.26
  -5 -10   1   30.97    4.31
   5  10  -1   26.98    6.41
  -5  10   1   26.86    4.59
   5  10  -1   33.23    8.13
  -5  10   1   26.21    7.45
  -5  10   1   24.27    6.05
   5 -10  -1   18.42    4.65
   5 -10  -1   34.32    8.87
   5  10   1   61.34   10.49
   5 -10   1   83.62   11.60
  -5  10  -1   67.12   11.58
  -5 -10  -1   73.63    8.26
   5  10   1   75.12   10.34
   5 -10   1  101.87   16.69
  -5  10  -1   58.31   10.78
  -5  10  -1   73.31    9.14
  -5 -10  -1   70.43   10.53
  -5  10  -1   86.64   11.76
  -5 -10  -3    2.04    5.38
  -5  10  -3    9.23    5.99
   5  10   3    2.87    4.23
  -5  10  -3    5.79    5.68
   5  10   3    7.19    5.51
   5 -10   3   14.37    7.58
  -5  10  -3    2.20    5.56
  -5 -10  -5   37.90   11.41
  -5  10  -5   62.00   13.16
  -5  10  -5   60.48   12.75
  -5  10  -5   63.21   12.76
   5  10   5   59.31   12.63
   5 -10   5   42.65   11.37
  -5  11  16  568.54   37.49
  -5  11  16  570.41   36.05
  -5 -11  16  565.62   35.26
   5  11 -16  603.49   42.24
   5 -11 -14  462.73   34.89
  -5 -11  14  428.18   30.79
  -5  11  14  493.24   31.88
  -5  11  14  432.89   25.40
  -5  11  14  448.39   28.35
  -5 -11  14  419.19   27.28
   5  11 -14  476.38   33.69
  -5 -11  12 1336.66   45.37
   5  11 -12 1388.61   53.75
   5 -11 -12 1348.91   47.40
   5 -11 -12 1386.04   58.87
  -5 -11  12 1397.78   47.99
  -5 -11  12 1348.68   52.67
  -5  11  12 1388.73   54.37
  -5  11  12 1263.43   46.41
  -5 -11  12 1347.07   53.26
   5  11 -12 1386.93   48.09
   5 -11 -12 1352.10   47.45
   5  11 -10 2005.88   55.10
   5 -11 -10 1961.99   54.95
  -5 -11  10 2059.05   58.47
   5  11 -10 1925.58   59.30
   5 -11 -10 2017.56   58.45
  -5 -11  10 1955.12   60.24
  -5  11  10 2084.64   64.37
  -5  11  10 2036.90   60.15
   5  11 -10 1957.54   61.84
  -5 -11  10 1998.15   61.74
  -5  11  10 2033.43   47.09
  -5 -11  10 2096.06   65.04
   5  11  -8  812.61   28.60
   5 -11  -8  848.74   29.12
  -5  11   8  849.20   28.70
  -5 -11   8  797.13   30.38
   5 -11  -8  807.73   33.38
  -5  11   8  807.97   28.97
  -5 -11   8  855.57   34.68
  -5 -11   8  776.42   34.60
  -5 -11   8  803.12   27.67
  -5  11   8  805.53   35.12
   5  11  -8  801.08   34.48
  -5  11   8  820.68   34.40
  -5 -11   8  831.55   31.67
  -5  11   8  813.26   29.00
  -5 -11   8  904.30   38.01
  -5  11   6 2849.83   70.42
  -5 -11   6 2967.97   77.17
  -5 -11   6 2919.62   78.10
  -5 -11   6 3008.22   58.67
  -5  11   6 2931.47   72.94
  -5 -11   6 2885.07   66.04
   5  11  -6 3043.74   79.30
  -5  11   6 2789.22   64.61
  -5  11   6 2881.62   74.48
   5  11  -6 2811.06   74.20
  -5  11   6 2821.04   70.68
   5 -11  -6 2896.48   83.23
   5 -11  -6 2857.30   64.64
   5  11  -6 2767.87   64.07
  -5 -11   4 1890.97   48.02
  -5  11   4 1959.69   47.50
  -5  11   4 1971.47   56.70
  -5 -11   4 1889.40   60.90
  -5 -11   4 1978.13   61.55
  -5 -11   4 2003.70   37.07
   5  11  -4 1860.38   57.13
  -5  11   4 1867.31   51.37
   5 -11  -4 1881.59   40.13
   5  11  -4 1810.88   56.85
  -5  11   4 1862.50   55.33
   5  11  -4 1976.05   51.50
   5 -11  -4 1854.30   63.15
  -5  11   4 1968.10   57.26
   5 -11  -4 1914.36   50.70
  -5 -11   4 1892.61   47.60
  -5  11   4 1814.76   46.31
   5  11  -4 1869.81   49.79
  -5  11   2  934.47   38.57
  -5 -11   2  940.46   41.55
  -5 -11   2  999.75   23.98
   5  11  -2  935.51   37.09
  -5  11   2  966.61   31.54
   5  11  -2  972.67   39.49
  -5  11   2  893.72   35.02
   5 -11  -2  963.91   44.54
  -5  11   2  946.34   39.16
  -5 -11   2  988.04   33.14
  -5  11   2  991.21   32.55
  -5  11   0 2515.31   74.17
  -5 -11   0 2653.17   58.00
  -5 -11   0 2466.73   77.91
   5  11   0 2546.98   74.69
  -5  11   0 2559.42   66.22
  -5 -11   0 2450.35   66.60
  -5  11   0 2558.88   67.23
   5 -11   0 2547.30   83.44
  -5  11   0 2557.07   75.58
  -5  11   0 2597.15   58.53
   5  11   0 2587.09   70.23
   5  11   0 2536.03   69.12
   5 -11   0 2523.43   68.02
  -5 -11  -2 1151.54   45.10
  -5  11  -2 1126.04   44.49
   5  11   2 1106.33   42.75
  -5  11  -2 1150.21   38.60
  -5  11  -2 1215.32   49.27
   5 -11   2 1189.56   56.91
  -5  11  -2 1187.38   49.47
   5  11   2 1175.36   46.11
   5 -11   2 1126.29   44.88
  -5  11  -4  660.06   37.19
  -5 -11  -4  604.90   35.48
  -5  11  -4  645.28   36.00
   5  11   4  631.68   36.77
   5 -11   4  620.33   35.83
  -5  11  -4  696.58   39.20
  -5 -11  -6  875.08   47.23
   5 -11   6  863.00   47.05
  -5  12  15   24.64    9.58
  -5 -12  15   52.84   12.65
  -5  12  15   42.08   10.71
  -5 -12  15   38.78    9.03
   5  12 -15   33.25   11.48
   5 -12 -15   59.21   14.81
  -5  12  13    2.08    5.89
  -5 -12  13    1.78    5.38
  -5 -12  13   14.60    6.39
   5  12 -13   -5.47    6.92
  -5 -12  13   -5.04    4.75
   5 -12 -13   -3.02    7.29
  -5  12  13    0.71    7.12
  -5 -12  13    3.42    7.23
  -5  12  13   -0.76    4.85
  -5 -12  13   -2.30    5.64
   5  12 -11   21.80    6.41
   5 -12 -11   20.96    7.04
  -5 -12  11   13.35    6.06
   5 -12 -11   21.72    7.90
  -5 -12  11   12.09    5.28
  -5  12  11   24.06    9.42
   5  12 -11   23.36    9.61
  -5  12  11   12.36    6.20
  -5 -12  11   13.57    6.97
  -5 -12  11   19.36    7.80
   5  12  -9    1.85    3.75
   5 -12  -9    2.24    3.25
  -5  12   9    2.60    3.80
  -5 -12   9    4.36    4.44
   5 -12  -9    4.04    4.23
  -5 -12   9    4.28    5.59
  -5  12   9    4.42    6.13
   5  12  -9    0.64    5.01
  -5  12   9    6.61    4.17
  -5  12   9    3.79    5.83
  -5 -12   9    6.28    5.96
  -5 -12   9    3.84    4.79
  -5  12   7   50.27    6.68
  -5 -12   7   85.85    8.90
  -5  12   7   66.31    7.14
  -5 -12   7   71.86    7.42
   5  12  -7   71.01    7.56
   5 -12  -7   75.59    7.42
   5 -12  -7  115.44   13.26
  -5  12   7   68.34    8.83
  -5 -12   7   66.73   10.78
  -5 -12   7   77.69   12.09
  -5 -12   7   89.00    7.83
   5  12  -7   74.06   11.98
  -5  12   7  102.06   12.01
   5  12  -7   59.82    9.10
  -5  12   7   69.45    8.71
  -5  12   7   59.71   10.04
  -5 -12   7   83.26   10.06
  -5 -12   5   93.35    8.27
  -5  12   5   91.48    8.21
   5 -12  -5   88.13    8.50
   5  12  -5   66.63    7.23
  -5  12   5   94.98   11.39
  -5 -12   5   89.60   12.88
  -5 -12   5   87.37    6.04
  -5 -12   5   89.72   12.96
   5  12  -5  109.32   13.43
  -5  12   5   96.83   11.13
   5  12  -5  106.37   12.45
  -5  12   5  102.61   11.81
  -5  12   5   73.62   10.35
   5 -12  -5  110.22   15.16
  -5 -12   3    1.12    2.52
  -5  12   3    2.84    2.93
   5 -12  -3    4.10    3.30
   5  12  -3    0.67    3.81
  -5  12   3    5.44    3.48
  -5 -12   3    2.73    2.83
  -5  12   3   -5.50    5.87
  -5 -12   3    0.36    1.66
  -5 -12   3    1.21    6.13
   5  12  -3   -2.78    5.03
  -5  12   3    3.94    3.44
   5  12  -3   -7.67    5.97
  -5  12   3    1.36    5.50
  -5  12   3    2.85    4.27
   5 -12  -3   -1.85    5.87
   5  12  -1   10.21    5.47
   5 -12  -1    2.48    3.97
  -5 -12   1    3.52    4.30
  -5  12   1    8.85    5.31
  -5  12   1   -2.11    5.75
  -5 -12   1    8.74    7.73
  -5 -12   1    9.01    3.35
   5  12  -1   -0.28    5.13
  -5  12   1   12.03    4.51
   5  12  -1   -0.01    5.12
  -5  12   1    0.26    5.73
  -5  12   1    2.64    4.63
   5 -12  -1   10.63    9.14
   5  12   1   -0.20    4.84
   5 -12   1   -2.63    5.18
  -5  12  -1    3.33    5.88
  -5 -12  -1    6.32    7.01
   5  12   1    5.15    6.22
   5 -12   1    9.68   10.03
  -5  12  -1   14.29    7.86
  -5  12  -1    8.40    5.55
  -5 -12  -1   -2.52    4.87
  -5  12  -1    4.85    4.75
   5  12   3    2.92    6.16
   5 -12   3    1.55    6.83
  -5 -12  -3    7.37    6.93
  -5  12  -3   14.79    7.09
  -5  12  -3    1.84    6.32
   5  12   3    4.94    5.24
  -5  12  -3    6.31    7.14
   5 -12   3    0.76    8.80
  -5 -12  -5    2.66    6.17
  -5  12  -5   18.50    9.38
  -5  12  -5    7.71    8.47
  -5  12  -5    6.56    6.73
   5  12   5    9.98    7.14
   5 -12   5   -6.42    7.64
   5 -13 -14  395.49   33.26
  -5 -13  14  376.83   29.19
  -5  13  14  366.49   29.20
  -5  13  14  336.55   23.84
   5  13 -14  337.05   29.03
  -5  13  14  325.66   24.10
  -5 -13  14  368.52   25.14
  -5  13  12  935.90   37.36
  -5 -13  12  865.34   36.04
  -5 -13  12  883.35   38.33
   5 -13 -12  850.98   39.41
   5 -13 -12  944.37   48.88
  -5 -13  12  888.10   39.68
  -5 -13  12  831.16   41.45
  -5  13  12  919.97   44.35
  -5  13  12  886.84   39.08
  -5 -13  12  876.44   44.59
  -5 -13  12  841.89   41.88
   5  13 -10  958.27   34.27
   5 -13 -10  916.56   33.51
  -5 -13  10  969.36   40.14
   5 -13 -10  938.91   39.88
  -5 -13  10  899.06   40.22
  -5  13  10  966.71   42.77
  -5  13  10  909.44   39.20
   5  13 -10  905.13   40.35
  -5 -13  10  970.15   41.49
  -5 -13  10  945.75   42.51
   5  13  -8  547.74   21.89
   5 -13  -8  568.00   22.34
   5 -13  -8  501.51   28.10
  -5  13   8  496.38   23.87
  -5 -13   8  501.45   28.57
  -5 -13   8  544.99   30.36
  -5  13   8  536.27   29.11
   5  13  -8  516.20   31.58
  -5  13   8  553.63   28.86
   5  13  -8  564.68   28.97
  -5 -13   8  556.92   27.42
  -5  13   8  509.37   23.76
  -5 -13   8  522.13   30.24
  -5  13   6 2664.81   70.71
  -5 -13   6 2832.69   79.45
  -5 -13   6 2873.65   80.70
  -5  13   6 2793.32   73.50
   5  13  -6 2804.98   79.36
  -5  13   6 2719.63   75.04
   5  13  -6 2759.73   74.09
  -5  13   6 2729.63   71.75
   5 -13  -6 2819.13   85.84
   5  13  -6 2682.96   60.33
   5 -13  -6 2762.16   60.95
  -5 -13   4 2091.82   50.76
  -5  13   4 2157.41   50.07
  -5 -13   4 2191.05   70.44
  -5  13   4 2083.58   62.80
  -5 -13   4 2215.01   69.46
   5  13  -4 2252.40   66.80
  -5  13   4 2143.29   59.21
  -5  13   4 2168.93   63.50
   5  13  -4 2098.31   63.51
   5 -13  -4 2168.05   73.69
  -5  13   4 2176.54   64.09
   5 -13  -4 2195.77   53.75
   5  13  -4 2145.98   52.94
  -5  13   2  982.51   41.02
  -5 -13   2  881.64   42.25
   5  13  -2  964.56   40.07
  -5  13   2  950.68   34.01
   5  13  -2  929.59   40.28
  -5  13   2  993.00   38.65
  -5  13   2  933.03   40.93
   5 -13  -2  965.50   47.84
  -5 -13   2  964.36   32.10
  -5  13   2  939.41   31.27
  -5  13   0 1747.22   61.19
  -5 -13   0 1788.59   65.46
   5  13   0 1808.82   61.78
  -5  13   0 1751.36   54.94
   5 -13   0 1826.19   71.96
  -5  13   0 1749.93   62.27
   5  13   0 1856.17   55.52
   5 -13   0 1768.44   53.88
   5  13   0 1762.82   58.78
  -5  13   0 1693.10   51.40
  -5 -13   0 1803.92   52.86
  -5  13  -2  803.28   41.06
   5  13   2  788.91   36.84
   5 -13   2  800.11   48.22
  -5  13  -2  754.04   40.74
   5  13   2  774.62   36.69
   5 -13   2  684.63   34.47
  -5  13  -2  732.40   34.80
  -5 -13  -2  800.57   36.16
  -5  13  -4  619.48   38.05
  -5 -13  -4  624.92   36.02
  -5  13  -4  642.84   39.76
   5  13   4  649.10   37.28
   5 -13   4  663.71   36.94
  -5 -14  13   -4.76    5.47
  -5 -14  13    3.72    5.12
   5 -14 -13   11.44    9.02
  -5  14  13    6.80    8.52
  -5 -14  13    6.24    7.60
  -5  14  13    7.46    7.14
  -5 -14  13   -7.57    7.31
  -5 -14  11   65.78    9.69
  -5 -14  11   40.37    9.00
   5 -14 -11   68.10   11.69
  -5 -14  11   68.74   12.23
  -5  14  11   44.14   11.24
   5  14 -11   70.11   12.47
  -5  14  11   37.10    9.15
  -5 -14  11   54.68   11.12
  -5 -14  11   53.20   11.40
   5 -14  -9   27.70    6.02
  -5 -14   9   23.70    7.57
   5 -14  -9   12.03    5.64
  -5 -14   9   16.41    6.99
  -5  14   9   20.70    7.92
   5  14  -9    8.87    7.16
  -5  14   9   16.18    6.33
  -5 -14   9   21.33    8.23
  -5 -14   9   17.41    6.79
   5 -14  -7   14.32    4.07
   5  14  -7   12.81    3.55
  -5  14   7   22.00    5.99
   5 -14  -7    9.72    6.75
  -5 -14   7   10.85    6.27
  -5 -14   7   13.24    8.22
   5  14  -7   16.07    8.11
  -5  14   7   13.56    6.32
   5  14  -7   12.86    6.28
  -5  14   7   16.97    7.57
  -5  14   7   18.87    5.97
  -5 -14   7   13.25    5.74
   5 -14  -5  124.09    9.03
   5  14  -5  125.74    9.17
  -5 -14   5  121.75    8.95
  -5  14   5  135.61    9.04
  -5  14   5  117.31   13.26
  -5 -14   5  129.56   15.82
  -5 -14   5  138.97   16.54
  -5  14   5  108.55   12.48
   5  14  -5  109.07   14.10
   5  14  -5  120.17   13.19
  -5  14   5  119.73   13.86
  -5  14   5  109.30   13.16
   5 -14  -5  121.60   17.22
  -5 -14   3   63.44    7.30
   5 -14  -3   76.69    8.73
   5  14  -3   70.05    8.17
  -5  14   3   62.23   11.01
  -5 -14   3   61.79   12.11
  -5 -14   3   97.37   14.10
   5  14  -3   71.14   11.79
  -5  14   3   64.41    9.02
   5  14  -3   61.70   10.77
  -5  14   3   75.68   10.62
  -5  14   3   68.30   10.97
   5 -14  -3   90.85   15.49
  -5 -14   1    9.70    4.75
  -5  14   1    4.31    5.62
  -5 -14   1   13.91    7.98
   5  14  -1    5.09    6.96
  -5  14   1   17.15    5.59
   5  14  -1    8.46    6.46
  -5  14   1    0.16    6.19
  -5  14   1   -0.20    4.90
   5 -14  -1    3.70    9.93
  -5 -14  -1    3.34    4.91
  -5  14  -1   12.37    7.01
  -5 -14  -1    3.09    7.65
   5  14   1   14.04    8.95
  -5  14  -1   10.30    7.19
  -5  14  -1   14.70    6.89
   5 -14   1    7.24    7.42
   5  14   1    6.06    5.95
  -5  14  -3    0.08    6.17
   5  14   3   -3.10    5.87
  -5  14  -3    9.10    7.58
   5 -14   3   -2.78    8.41
  -5  15  14  462.69   29.54
  -5 -15  14  455.46   33.32
  -5 -15  14  469.74   36.43
   5 -15 -14  500.53   38.71
  -5 -15  12 1035.48   44.84
   5 -15 -12 1040.88   47.00
  -5 -15  12  952.21   44.63
  -5 -15  12  943.81   45.33
  -5  15  12  931.36   46.18
  -5  15  12  886.83   41.79
  -5 -15  12  943.05   48.15
  -5 -15  12  959.24   46.53
  -5 -15  10  783.98   38.58
   5 -15 -10  701.87   37.22
  -5 -15  10  744.46   39.03
  -5  15  10  801.92   40.03
   5  15 -10  833.16   38.86
  -5  15  10  771.86   37.82
  -5 -15  10  776.35   39.16
  -5 -15  10  786.47   40.33
  -5 -15   8  748.49   38.65
  -5  15   8  719.85   36.37
   5  15  -8  707.04   39.34
  -5  15   8  744.57   36.47
   5  15  -8  668.20   33.38
  -5 -15   8  808.82   35.82
   5 -15  -8  685.38   36.35
  -5  15   8  735.30   31.86
  -5 -15   8  726.97   37.60
  -5 -15   6  834.13   41.26
  -5  15   6  818.49   37.00
   5  15  -6  838.53   41.39
   5  15  -6  747.22   34.56
  -5  15   6  863.82   38.95
   5 -15  -6  914.35   48.04
  -5  15   6  872.41   36.63
   5 -15  -6  885.31   41.78
  -5  15   6  827.93   35.88
  -5 -15   6  839.47   41.39
  -5 -15   4  643.65   36.60
   5  15  -4  651.90   34.89
  -5  15   4  624.06   30.34
  -5  15   4  638.13   32.74
   5  15  -4  542.05   29.71
   5 -15  -4  603.13   38.18
  -5  15   4  606.45   32.14
  -5  15   4  578.50   31.40
  -5 -15   4  537.55   34.02
  -5 -15   2  690.39   38.57
   5  15  -2  628.42   34.42
  -5  15   2  659.43   29.94
  -5  15   2  667.18   33.21
   5  15  -2  585.72   32.18
   5 -15  -2  707.31   42.73
  -5  15   2  629.14   34.95
  -5  15   2  639.58   34.63
  -5 -15   0 1129.51   52.10
   5  15   0 1051.53   46.19
  -5  15   0 1034.72   48.05
   5 -15   0  991.46   54.97
  -5  15   0 1049.27   47.74
   5  15   0  966.87   44.73
  -5  15   0 1019.78   42.35
   5  15   2  306.61   24.21
   5  15   2  299.45   25.56
   5 -15   2  315.24   32.04
  -5  15  -2  312.24   27.48
  -5  15  -2  318.82   27.17
  -5  16  13   10.81    8.05
  -5 -16  13    8.06    7.38
  -5 -16  13    1.92    5.81
   5 -16 -13    1.72    8.23
  -5 -16  11    9.86    7.13
   5 -16 -11    1.95    6.11
  -5 -16  11    5.44    6.00
  -5  16  11    3.09    7.74
  -5  16  11    8.91    6.80
  -5 -16  11   -1.50    5.88
  -5 -16  11   15.46    8.44
  -5 -16   9   24.08    8.77
   5 -16  -9   20.38    8.45
  -5 -16   9   16.71    8.83
  -5  16   9   19.17    7.98
   5  16  -9   27.95    8.69
  -5  16   9   37.56   10.01
  -5 -16   9   51.94   11.61
  -5 -16   9   27.84    8.85
  -5 -16   7   -5.81    7.64
   5  16  -7    8.16    6.82
  -5  16   7    4.59    5.69
   5  16  -7   11.14    6.07
  -5 -16   7   10.66    6.95
  -5  16   7   -8.33    6.65
  -5  16   7    6.51    5.00
   5 -16  -7   -3.66    6.80
  -5 -16   7    8.15    6.65
  -5  16   5   19.33    7.79
   5 -16  -5   23.31    9.18
  -5 -16   5    7.48    6.49
  -5 -16   5   16.33    8.03
   5  16  -5    2.03    6.36
  -5  16   5   25.13    7.65
   5  16  -5   26.55    7.45
  -5  16   5   13.74    6.80
  -5  16   5   16.51    7.85
   5 -16  -5   46.11   12.90
  -5  16   3    5.39    5.73
  -5 -16   3   13.25    8.19
  -5 -16   3    8.00    8.01
   5  16  -3    4.38    5.98
  -5  16   3    6.64    5.57
   5  16  -3    8.19    5.05
  -5  16   3   -5.31    7.04
  -5  16   3    2.09    5.12
   5 -16  -3   26.01   10.44
  -5  16   1   45.06   10.46
  -5 -16   1   17.79    8.07
   5  16  -1   25.41    9.34
  -5  16   1   13.60    5.61
   5  16  -1   25.19    8.60
  -5  16   1   28.02   10.17
  -5  16   1   10.35    7.16
   5 -16  -1   15.98   10.77
  -5  16  -1    8.14    8.77
  -5 -16  -1   14.57    9.33
   5  16   1    6.61    7.30
   5 -16   1    4.92   10.52
  -5  16  -1    9.02    8.43
  -5  16  -1    5.12    5.47
   5  16   3    1.01    6.76
  -5  17  12  450.21   30.70
  -5 -17  12  446.75   31.43
  -5 -17  12  465.28   32.43
  -5 -17  12  471.74   31.95
   5 -17 -10  706.61   40.12
  -5 -17  10  674.12   38.47
  -5 -17  10  634.67   37.97
  -5  17  10  700.99   39.61
   5  17 -10  736.07   37.37
  -5  17  10  633.82   36.67
  -5 -17  10  683.75   38.33
  -5 -17  10  707.49   40.02
  -5 -17   8  599.23   36.85
  -5  17   8  566.65   34.05
   5  17  -8  605.54   38.14
   5  17  -8  587.27   31.68
  -5  17   8  569.04   33.59
  -5 -17   8  589.00   32.86
   5 -17  -8  635.12   37.41
  -5 -17   8  567.50   35.69
  -5  17   6  594.46   34.21
   5  17  -6  618.42   31.42
  -5  17   6  628.58   34.09
   5  17  -6  669.87   38.80
  -5 -17   6  621.15   37.75
   5 -17  -6  630.27   37.68
  -5  17   6  638.89   33.51
  -5 -17   6  648.60   38.40
  -5  17   4  220.64   20.50
  -5 -17   4  200.15   22.14
  -5 -17   4  224.77   22.90
   5  17  -4  222.91   21.90
  -5  17   4  222.24   19.30
  -5  17   4  207.75   20.10
   5  17  -4  225.66   18.81
  -5  17   4  211.36   19.82
   5 -17  -4  209.59   24.95
  -5 -17   2  294.42   27.03
   5  17  -2  340.39   26.82
  -5  17   2  331.83   22.68
  -5  17   2  295.62   24.02
   5 -17  -2  305.00   30.30
  -5  17   2  289.00   24.88
  -5  17   2  293.41   24.78
  -5 -17   0  379.23   30.85
   5  17   0  343.35   27.27
  -5  17   0  365.84   26.23
   5 -17   0  343.34   33.34
  -5  17   0  395.88   30.61
  -5  17   0  371.05   28.78
   5  17   2  260.59   25.17
  -5 -17  -2  275.73   28.04
  -5 -18  13   50.93   12.59
  -5 -18  13   56.27   12.62
  -5 -18  11   -0.68    6.62
   5 -18 -11   -3.37    6.98
  -5 -18  11    7.14    8.47
   5 -18 -11    6.38    7.18
  -5 -18  11    8.57    6.25
  -5  18  11   10.70    8.73
  -5 -18  11   16.97    8.72
  -5 -18   9   37.51   10.61
   5 -18  -9   31.34   10.48
  -5 -18   9   22.75    8.96
  -5  18   9   21.53    9.95
   5  18  -9   60.63   11.58
  -5  18   9   36.82   10.44
  -5 -18   9   37.75   10.86
  -5 -18   7  191.38   21.74
  -5  18   7  174.45   19.31
   5  18  -7  209.28   23.20
   5  18  -7  190.73   17.39
  -5  18   7  204.23   20.73
   5 -18  -7  177.21   20.42
  -5 -18   7  170.41   20.29
   5 -18  -5   19.23    8.98
  -5  18   5   33.35   10.96
  -5 -18   5    6.97    8.20
   5  18  -5   11.74    8.41
  -5  18   5   15.63    8.14
  -5 -18   5    3.12    8.01
  -5  18   5   11.61    6.95
   5 -18  -5   30.91   11.99
  -5  18   3   11.86    6.33
  -5 -18   3    8.54    9.02
   5  18  -3    4.64    8.40
  -5  18   3    2.45    5.21
  -5 -18   3   -0.32    7.37
  -5  18   3   -4.69    5.95
   5 -18  -3   10.81    9.74
  -5  18   1   81.76   14.61
   5  18  -1   81.17   14.62
  -5 -18   1   91.06   16.28
  -5  18   1   74.39   13.05
   5 -18  -1   55.33   14.10
  -5  18  -1   11.62    8.39
   5  18   1   13.16    9.59
  -5 -18  -1   22.44   10.06
  -5 -19  12  408.68   31.95
  -5 -19  12  396.21   32.01
  -5 -19  10  189.87   22.29
  -5 -19  10  195.61   22.69
  -5  19  10  138.12   18.57
  -5 -19  10  142.91   19.15
  -5  19   8  461.86   32.09
  -5  19   8  398.83   30.05
   5  19  -8  437.88   34.27
  -5 -19   8  416.49   32.99
   5 -19  -8  456.42   34.02
  -5 -19   8  434.43   33.03
  -5  19   6  417.25   30.91
  -5  19   6  437.69   30.43
   5  19  -6  465.95   33.98
  -5 -19   6  378.71   31.25
   5 -19  -6  432.65   33.52
  -5 -19   6  459.97   34.39
  -5 -19   4  453.44   35.29
   5  19  -4  457.89   33.26
  -5  19   4  450.86   29.51
  -5  19   4  449.29   31.34
   5 -19  -4  498.01   40.05
   5 -19  -4  462.31   35.84
  -5  19   4  414.28   29.76
  -5 -19   4  510.84   36.98
  -5 -19   2  558.26   39.05
   5  19  -2  544.28   36.20
  -5  19   2  530.43   31.06
  -5  19   2  487.61   32.73
   5 -19  -2  475.64   40.80
  -5  19   2  516.83   35.12
  -5 -19   0  419.50   34.82
  -5  19   0  423.92   30.58
  -5 -20   9   26.60   11.38
   5 -20  -9   53.35   14.36
  -5 -20   9   29.03   11.76
   5  20  -7   63.27   14.99
  -5  20   7   42.72   11.01
   5 -20  -7   92.66   16.82
  -5 -20   7   71.40   15.60
  -5 -20   7   76.60   14.75
   5  20  -5   17.38   11.04
  -5  20   5    8.80    7.00
  -5 -20   5    3.07    9.21
   5 -20  -5   16.14   11.47
  -5  20   5   15.17    8.75
  -5 -20   5   23.36   11.97
  -5  20   3    9.57    8.78
  -5  20   3    6.70    7.24
  -5  20   3   -0.34    7.63
  -5 -21  10  369.89   31.65
  -5  21   4  580.78   36.08
   6   0 -18  400.63   34.16
  -6   0  18  379.79   30.62
  -6   0  18  372.61   31.29
   6   0 -16 2053.24   74.97
  -6   0  16 1952.84   68.74
   6   0 -16 1938.97   69.24
   6   0 -14 1153.91   48.69
  -6   0  14 1166.79   45.55
  -6   0  14 1094.99   43.06
   6   0 -14 1120.57   45.60
   6   0 -12 1728.65   52.55
  -6   0  12 1784.03   56.61
   6   0 -12 1682.31   38.78
   6   0 -12 1744.57   56.08
   6   0 -12 1713.55   53.86
   6   0 -10 3296.50   76.19
  -6   0  10 3204.68   84.13
   6   0 -10 3337.40   78.63
   6   0 -10 3113.68   71.42
   6   0 -10 3240.45   77.77
  -6   0   8  986.53   39.79
  -6   0   8 1033.40   34.38
   6   0  -8  969.21   33.23
  -6   0   8 1013.40   26.51
   6   0  -8 1015.83   35.50
   6   0  -6  554.27   24.67
   6   0  -6  526.32   23.35
   6   0  -6  544.18   16.89
  -6   0   6  551.59   27.64
   6   0  -6  556.00   27.90
   6   0  -4 5131.92  107.78
  -6   0   4 4982.81   98.22
   6   0  -4 4994.54   98.89
  -6   0   4 5070.56  111.30
   6   0  -4 5091.62  107.70
  -6   0   2  185.03    7.83
  -6   0   2  181.62   14.76
  -6   0   2  202.80   15.02
   6   0  -2  180.84   15.26
  -6   0   0  950.38   39.82
  -6   0   0 1085.43   36.47
   6   0   0 1084.35   42.69
  -6   0  -2  709.63   34.28
  -6   0  -2  748.74   35.23
  -6   0  -2  740.67   37.78
  -6   0  -2  745.66   33.15
   6   0   2  726.11   37.48
  -6   0  -4  183.48   17.86
  -6   0  -4  192.97   21.50
  -6   0  -4  217.30   17.90
  -6   0  -4  198.28   20.35
   6   0   4  227.90   23.19
  -6   0  -6  579.61   38.65
  -6   1  17   34.68   10.07
  -6  -1  17   70.26   13.81
  -6   1  17   50.33   11.86
  -6  -1  17   32.31   10.35
   6   1 -17   70.98   15.31
   6  -1 -17   22.47   11.71
  -6   1  15    3.87    6.92
  -6  -1  15   15.52    7.53
   6   1 -15   -4.12    6.41
   6  -1 -15   16.78    7.97
   6   1 -15   37.38   10.14
   6  -1 -15   24.10    8.76
  -6  -1  15   30.00    8.29
  -6  -1  13    9.54    2.84
  -6   1  13    5.28    1.72
   6   1 -13   -5.39    6.28
   6  -1 -13    9.74    6.79
  -6   1  13    1.56    4.74
  -6  -1  13   11.08    5.21
   6   1 -13   11.58    7.00
   6  -1 -13    9.56    5.12
  -6   1  13   10.24    6.36
  -6  -1  13    7.68    6.65
   6   1 -11  265.03   13.40
   6   1 -11  267.24   18.44
   6  -1 -11  243.88   13.50
   6  -1 -11  281.43   19.52
   6  -1 -11  238.59   16.38
   6   1 -11  239.95   16.94
   6   1 -11  281.47   18.70
   6  -1 -11  275.33   18.64
  -6   1  11  291.06   20.31
  -6  -1  11  263.03   20.14
   6   1  -9   17.14    4.90
   6   1  -9   16.47    4.94
   6   1  -9   13.71    5.28
   6  -1  -9   21.90    5.81
   6   1  -9   13.53    2.55
  -6  -1   9   25.11    8.17
  -6   1   9    8.88    5.33
   6  -1  -9    9.15    4.84
   6   1  -9    8.71    5.01
  -6   1   7  666.65   30.41
  -6  -1   7  630.67   30.70
  -6   1   7  654.63   25.37
   6   1  -7  624.92   25.96
   6  -1  -7  565.04   23.86
  -6   1   7  683.53   21.07
   6  -1  -7  603.02   26.41
   6   1  -7  630.22   26.78
  -6  -1   5  492.49   20.94
   6   1  -5  522.40   23.56
   6  -1  -5  493.56   22.05
   6  -1  -5  530.27   19.09
  -6   1   5  450.66   24.44
   6   1  -5  474.70   23.88
  -6  -1   5  488.72   25.61
   6  -1  -5  524.29   26.22
   6  -1  -3   68.74    7.99
   6   1  -3   71.47    7.27
  -6  -1   3   89.13   10.01
  -6   1   3   73.75    9.53
   6  -1  -3   68.46    8.33
  -6   1   3   76.10    9.49
  -6  -1   3   68.88    9.11
   6   1  -3   90.22   10.64
   6  -1  -3   74.81    9.50
  -6   1   3   75.69    5.81
  -6  -1   3   78.34    6.26
  -6   1   1  106.64   12.21
  -6  -1   1   90.73   11.43
  -6  -1   1   87.81    5.37
  -6   1   1  116.57   10.80
  -6  -1   1  110.82   11.06
   6   1  -1   93.07   11.62
   6  -1  -1   93.41   11.23
   6   1   1   13.66    7.32
   6  -1   1   26.43    8.26
  -6  -1  -1   19.52    6.56
  -6   1  -1    6.65    5.73
  -6  -1  -1   16.88    7.70
  -6   1  -1   18.02    8.18
  -6   1  -1   20.92    3.60
  -6   1  -1    6.72    5.00
  -6   1  -1   15.54    4.05
  -6  -1  -1   15.97    4.74
  -6   1  -3   59.42   11.42
  -6  -1  -3   56.71   10.19
  -6   1  -3   69.23   11.55
  -6  -1  -3   80.10   11.85
   6   1   3   63.99   12.25
   6  -1   3   63.55   12.15
  -6  -1  -3   73.41   10.61
  -6   1  -3   85.32   11.60
  -6  -1  -3   65.39   13.49
  -6   1  -3   71.38   12.70
  -6   1  -5    1.92    8.05
  -6  -1  -5   -1.86    7.01
  -6   1  -5   -8.67    7.79
  -6  -1  -5    1.02    7.38
   6   1   5   -7.22    9.17
   6  -1   5   17.25   10.00
   6   2 -18  698.59   46.09
   6  -2 -18  737.76   47.38
  -6  -2  18  819.06   46.19
  -6   2  18  725.79   42.90
  -6   2  18  739.52   43.65
  -6  -2  18  722.02   43.14
  -6   2  16 1066.63   48.34
  -6  -2  16 1180.32   44.28
  -6  -2  16 1163.93   51.42
   6   2 -16 1164.70   54.30
   6  -2 -16 1256.01   56.53
  -6   2  16 1133.96   39.81
   6   2 -16 1141.18   50.80
   6  -2 -16 1149.46   51.01
   6   2 -14 1066.33   46.19
   6  -2 -14  993.10   45.26
  -6   2  14  978.88   41.24
  -6  -2  14  971.34   42.30
  -6  -2  14 1069.32   42.16
   6   2 -14 1058.75   43.84
   6  -2 -14  988.62   42.49
   6   2 -12  852.80   36.74
   6  -2 -12  904.91   38.71
   6  -2 -12  925.28   26.01
   6   2 -12  867.76   25.43
  -6   2  12  891.61   35.03
   6  -2 -12  915.97   34.77
   6   2 -12  986.21   37.90
  -6   2  12  943.02   38.21
  -6  -2  12  872.37   38.80
   6   2 -12  844.39   35.83
   6  -2 -12  927.89   37.24
   6   2 -10 4632.11  100.71
   6  -2 -10 4473.02   96.05
  -6  -2  10 4489.72  109.02
  -6   2  10 4489.88  105.10
   6   2 -10 4505.47   99.88
   6  -2 -10 4593.65  100.46
   6   2 -10 4551.85   93.63
   6   2 -10 4563.15   98.23
   6  -2  -8  927.71   33.53
   6   2  -8  936.90   33.39
   6   2  -8  916.41   26.97
   6   2  -8  862.12   27.67
   6   2  -8  884.75   32.89
  -6   2   8  936.09   30.77
   6  -2  -8  931.40   30.61
   6   2  -8  882.82   32.99
  -6   2   8  953.44   28.82
  -6  -2   8  939.27   21.21
  -6  -2   8  921.06   38.83
  -6   2   8  905.92   36.43
  -6   2   6 2012.67   58.34
   6  -2  -6 2135.29   61.39
  -6  -2   6 2139.80   60.88
  -6  -2   6 1914.69   53.74
   6   2  -6 2118.86   56.32
   6  -2  -6 2051.95   52.31
   6  -2  -6 2155.19   49.19
   6  -2  -6 2132.11   56.37
   6   2  -6 2112.09   56.22
  -6  -2   4 2646.20   57.65
   6   2  -4 2505.53   65.03
   6  -2  -4 2551.98   65.29
   6   2  -4 2573.04   54.05
  -6   2   4 2496.49   65.66
  -6  -2   4 2577.95   66.81
   6  -2  -4 2736.15   68.32
  -6   2   2 1413.32   42.46
  -6  -2   2 1414.76   44.02
   6   2  -2 1432.97   39.98
  -6  -2   2 1485.52   46.80
  -6   2   2 1414.53   45.83
  -6   2   2 1405.68   27.36
  -6  -2   2 1413.16   33.50
   6   2  -2 1453.10   46.52
   6  -2  -2 1390.11   45.53
   6   2   0 1354.74   48.49
   6  -2   0 1336.92   48.04
  -6  -2   0 1266.16   46.33
  -6   2   0 1346.01   47.73
  -6   2   0 1342.99   47.68
  -6  -2   0 1358.84   42.35
  -6  -2   0 1208.43   33.36
  -6   2   0 1353.81   45.59
  -6   2   0 1347.09   34.54
  -6  -2   0 1349.54   42.21
  -6   2   0 1285.84   35.82
  -6  -2  -2 2022.29   61.63
  -6   2  -2 2009.18   63.33
  -6  -2  -2 2008.30   58.46
  -6   2  -2 1970.23   60.72
   6   2   2 2014.12   67.04
   6  -2   2 2053.58   67.60
  -6  -2  -2 1945.71   66.32
  -6   2  -2 2034.06   67.64
  -6   2  -4  485.05   32.34
  -6  -2  -4  530.50   32.12
  -6   2  -4  466.46   28.67
  -6  -2  -4  479.45   28.83
  -6   2  -4  472.48   27.95
  -6  -2  -4  485.38   33.52
  -6   2  -4  445.36   32.35
   6   2   4  469.62   33.18
   6  -2   4  471.41   33.18
  -6  -2  -6  796.67   44.56
  -6   3  17  131.46   17.30
  -6  -3  17  116.95   16.68
  -6   3  17  135.94   18.11
  -6  -3  17  121.97   17.13
   6   3 -17  117.63   18.63
   6  -3 -17  148.11   20.89
  -6  -3  15   35.44    8.25
   6   3 -15   26.56    9.83
   6  -3 -15   41.13   11.77
  -6   3  15   32.47    9.09
  -6  -3  15   23.22    7.94
  -6   3  15   18.90    6.12
   6  -3 -15   32.53    9.34
   6   3 -15   24.62    8.85
  -6  -3  13  313.45   15.22
   6  -3 -13  295.77   10.48
   6   3 -13  289.22   21.45
   6  -3 -13  316.11   24.05
  -6   3  13  306.71   20.44
  -6  -3  13  303.30   21.60
  -6  -3  13  314.52   22.51
   6   3 -13  304.24   21.40
   6  -3 -13  315.86   22.04
   6   3 -13  303.39   21.75
   6   3 -11  163.00   10.85
   6   3 -11  153.99   13.90
   6  -3 -11  162.89   15.49
   6   3 -11  169.60   14.87
   6  -3 -11  142.47   11.89
  -6  -3  11  179.31   17.71
  -6   3  11  158.14   15.07
   6   3 -11  172.06   14.87
   6  -3 -11  170.46   14.75
   6  -3  -9  101.14   10.91
   6   3  -9   91.23   10.33
   6   3  -9   95.83    9.49
   6   3  -9  100.67    9.14
   6   3  -9  104.70    7.11
   6  -3  -9   89.82    8.64
   6   3  -9  102.96   11.03
  -6   3   9  117.94    9.95
  -6   3   9   99.81    9.54
  -6  -3   9   99.61   13.23
  -6   3   9  113.51   12.50
   6  -3  -7    5.48    4.24
   6   3  -7    1.37    4.60
   6   3  -7    0.68    2.62
   6   3  -7    1.22    2.07
   6   3  -7   -1.60    4.01
   6  -3  -7   -3.45    3.64
   6  -3  -7    1.07    3.02
  -6  -3   7    1.89    5.53
  -6   3   7    6.53    3.55
  -6   3   7   -2.69    4.46
   6   3  -5  152.70    7.06
  -6  -3   5  154.06   11.40
   6   3  -5  168.66   13.96
   6  -3  -5  172.14   12.14
   6  -3  -5  144.75   10.94
   6  -3  -5  161.42   14.19
  -6  -3   5  157.83   13.72
  -6   3   5  156.79   13.42
   6   3  -3   93.94    7.28
  -6  -3   3  104.01   11.34
  -6   3   3  119.35   11.85
  -6  -3   3  115.02    8.33
   6  -3  -3   88.02   10.03
  -6  -3   3  100.50   10.80
  -6   3   3  114.60   10.49
   6   3  -3   88.09   10.47
   6  -3  -3  110.12   11.64
   6   3  -1   33.22    7.81
   6  -3  -1   16.04    5.60
  -6   3   1   11.19    5.78
  -6  -3   1   27.12    5.41
   6   3  -1   27.88    5.85
  -6  -3   1   35.13    8.01
  -6   3   1   21.07    6.47
  -6  -3   1   27.18    4.01
  -6   3   1   22.23    4.43
  -6  -3   1   33.16    5.12
  -6   3   1   14.05    5.99
  -6   3   1   29.07    4.95
  -6  -3   1   32.55    6.32
   6   3   1   11.33    6.69
   6  -3   1    4.69    6.12
  -6  -3  -1   -4.49    4.85
  -6   3  -1    6.17    5.23
  -6  -3  -1    0.11    6.45
  -6   3  -1   -2.95    5.89
  -6   3  -1   -3.08    4.98
  -6   3  -1    4.42    2.41
  -6  -3  -1    6.76    4.49
  -6  -3  -3   59.13   10.78
  -6   3  -3   61.78   10.93
  -6  -3  -3   51.17   11.03
  -6   3  -3   84.75   13.81
  -6   3  -3   88.93   13.06
  -6  -3  -3   81.76   10.64
   6   3   3   52.36   11.30
   6  -3   3   39.41   10.47
  -6  -3  -5    5.73    7.49
  -6   3  -5   -9.64    7.12
   6   3   5   -0.26    7.76
   6  -3   5   -5.69    9.44
  -6   3  -5    2.03    6.14
  -6   3  -5    6.25    6.43
  -6  -3  -5  -10.63    8.52
   6   4 -18  342.66   32.70
  -6   4  18  346.43   29.08
  -6  -4  18  280.19   27.47
  -6   4  18  345.67   28.90
  -6  -4  18  340.02   29.20
  -6   4  16 1324.48   52.91
  -6  -4  16 1316.53   47.27
  -6  -4  16 1189.18   53.55
   6   4 -16 1281.84   57.66
   6  -4 -16 1277.48   58.05
  -6   4  16 1300.35   43.28
   6   4 -16 1259.05   53.52
   6  -4 -16 1316.81   54.86
  -6   4  14 1524.51   52.07
  -6  -4  14 1519.06   53.23
   6   4 -14 1431.53   55.86
   6  -4 -14 1586.96   59.84
  -6  -4  14 1465.46   55.03
  -6   4  14 1475.89   48.06
   6   4 -14 1465.67   53.62
   6  -4 -14 1534.16   54.49
  -6   4  12 2112.09   40.34
   6  -4 -12 2246.38   68.03
   6   4 -12 2104.63   62.21
  -6   4  12 2127.08   58.27
   6   4 -12 2086.43   62.62
   6   4 -12 2089.10   61.54
   6  -4 -12 2125.47   62.03
  -6  -4  12 2185.55   67.75
   6   4 -10 2496.82   59.30
   6   4 -10 2355.54   59.97
  -6   4  10 2398.97   53.24
   6  -4 -10 2441.99   48.66
   6  -4 -10 2393.61   58.01
   6   4 -10 2429.31   64.86
  -6   4  10 2436.46   58.25
  -6  -4  10 2296.49   71.26
  -6   4  10 2492.51   67.88
   6   4 -10 2447.46   63.73
   6  -4 -10 2316.92   62.81
   6  -4  -8 4039.42   91.29
   6   4  -8 4066.87   91.39
   6   4  -8 4103.97   80.69
   6   4  -8 4192.66   84.56
  -6   4   8 4196.54   85.88
   6  -4  -8 4064.77   84.61
   6   4  -8 3954.94   92.53
  -6   4   8 4318.46   89.97
  -6  -4   8 4093.91   99.32
  -6   4   8 4282.64   96.69
   6   4  -6 4396.61   95.15
   6  -4  -6 4212.24   94.23
   6   4  -6 4189.01   94.65
   6   4  -6 4321.12   75.12
   6  -4  -6 4336.15   89.06
   6   4  -6 4311.67   96.72
   6  -4  -6 4354.16   91.94
  -6  -4   6 4322.90   98.94
  -6   4   6 4381.10   96.53
  -6   4   4 4731.18  105.03
   6   4  -4 4850.43   85.04
  -6  -4   4 4662.81   95.34
   6   4  -4 4974.43  104.08
   6  -4  -4 4667.34  102.43
   6   4  -4 4831.43  105.38
   6  -4  -4 4850.14  102.64
   6  -4  -4 4639.11  105.35
  -6   4   4 4618.30  100.22
  -6  -4   4 4743.36  104.68
  -6  -4   2 2182.88   59.98
  -6   4   2 2097.26   58.85
  -6   4   2 2037.34   60.72
   6   4  -2 2166.31   50.15
  -6  -4   2 2069.38   48.71
  -6   4   2 2132.53   38.56
   6  -4  -2 2131.90   60.08
   6   4  -2 2203.80   60.77
   6   4  -2 2169.72   51.78
  -6   4   2 2103.11   59.88
  -6   4   2 1939.46   51.64
   6  -4  -2 2137.49   54.26
  -6  -4   2 2114.47   58.05
  -6   4   2 2073.95   51.00
   6   4   0 2691.69   73.41
   6  -4   0 2595.79   72.36
  -6  -4   0 2682.52   63.43
  -6   4   0 2434.45   70.30
   6   4   0 2554.96   57.41
  -6  -4   0 2411.35   55.91
  -6   4   0 2581.73   70.52
  -6   4   0 2524.26   55.99
  -6  -4   0 2610.55   72.08
  -6   4   0 2603.54   72.21
  -6  -4   0 2623.85   66.52
   6   4   2 1546.02   57.38
   6  -4   2 1513.85   56.91
  -6  -4  -2 1579.15   57.97
  -6   4  -2 1472.12   56.36
  -6  -4  -2 1638.23   51.99
  -6   4  -2 1500.91   54.20
  -6   4  -2 1488.45   52.88
  -6  -4  -2 1606.50   49.18
  -6  -4  -4  550.95   30.93
  -6  -4  -4  578.01   33.21
  -6   4  -4  635.65   34.46
   6   4   4  618.49   38.15
   6  -4   4  626.11   38.69
  -6   4  -4  617.25   33.43
  -6  -4  -4  619.64   38.24
  -6   4  -4  644.81   38.68
  -6   5  17    5.60    8.00
  -6  -5  17    6.80    8.83
  -6   5  17   -1.29    7.34
  -6  -5  17   34.02   11.47
   6   5 -17   -0.49    7.97
   6  -5 -17   17.13   10.74
  -6  -5  15   79.09   11.27
   6   5 -15   73.40   13.29
   6  -5 -15   63.48   13.32
  -6   5  15   79.61   12.38
  -6  -5  15   80.39   13.24
  -6   5  15   71.42   10.18
   6  -5 -15   76.77   13.42
   6   5 -15   68.73   12.67
   6   5 -13   43.65    8.66
   6  -5 -13   20.48    6.54
  -6  -5  13   38.09    4.28
   6   5 -13   26.97    8.61
   6  -5 -13   33.42    9.46
  -6   5  13   51.18    8.41
   6   5 -13   35.83    9.35
  -6   5  13   19.94    5.52
  -6  -5  13   32.37    8.71
  -6   5  11    3.20    2.43
  -6  -5  11    0.72    2.15
   6  -5 -11    2.22    2.07
  -6  -5  11    0.95    3.06
   6   5 -11    4.59    3.71
  -6   5  11    4.03    3.95
   6   5 -11    0.70    5.41
   6   5 -11    1.79    4.57
   6  -5 -11   -1.08    4.28
  -6  -5  11    6.91    6.59
   6   5  -9  337.76   15.58
  -6   5   9  326.07   15.66
   6   5  -9  342.32   16.28
  -6  -5   9  380.54   20.34
  -6   5   9  353.07   16.74
   6  -5  -9  335.97   15.74
   6   5  -9  346.83   20.57
   6  -5  -9  297.43   18.40
   6   5  -9  323.04   18.59
  -6  -5   9  386.71   24.65
  -6   5   9  353.79   21.57
   6   5  -7   50.78    3.90
   6  -5  -7   43.01    5.71
   6   5  -7   39.98    8.13
   6   5  -7   39.05    6.63
  -6   5   7   40.69    7.08
  -6  -5   7   57.90    9.61
   6  -5  -7   55.43    8.24
  -6   5   7   38.47    7.59
  -6   5   7   44.91    7.50
   6  -5  -7   49.53    7.77
   6   5  -7   43.04    7.39
  -6   5   5  129.01   12.14
   6   5  -5  146.35   13.34
   6   5  -5  134.16    6.42
   6  -5  -5  141.83   12.40
  -6  -5   5  140.80   13.31
  -6   5   5  124.63   11.30
   6   5  -3   38.05    8.27
   6  -5  -3   32.16    7.06
  -6   5   3   33.36    7.47
   6   5  -3   40.29    4.20
  -6  -5   3   31.43    6.48
  -6   5   3   42.99    7.28
   6   5  -3   44.09    6.73
  -6   5   3   36.63    4.32
  -6   5   3   54.55    7.53
  -6   5   3   35.24    7.27
   6  -5  -3   33.94    6.26
   6  -5  -3   42.77    7.94
  -6   5   3   32.45    5.87
  -6  -5   3   43.06    7.91
   6   5  -1   -3.13    5.25
   6  -5  -1   -4.88    5.57
  -6   5   1   -2.23    5.19
  -6  -5   1    2.95    3.68
   6   5  -1    3.26    3.26
  -6   5   1    2.26    4.40
  -6  -5   1    3.24    4.94
   6   5  -1    4.31    3.32
  -6   5   1    4.57    3.57
  -6   5   1   -0.95    5.48
  -6  -5   1    7.44    4.17
   6  -5  -1    0.32    2.48
   6   5   1   38.99    9.59
   6  -5   1   30.94    8.74
  -6   5  -1   28.98    8.71
  -6  -5  -1   42.73    7.08
  -6  -5  -1   58.94   11.34
  -6   5  -1   49.19   10.29
   6   5   1   45.02    6.32
  -6   5  -1   38.99    8.82
  -6   5  -1   34.35    5.08
  -6  -5  -1   44.71    8.43
  -6  -5  -3   13.62    6.84
  -6   5  -3   16.08    7.08
  -6   5  -3   23.24    8.19
   6   5   3   14.83    9.29
   6  -5   3   10.70    8.82
  -6  -5  -3   22.20    8.64
  -6   5  -3   16.67    7.59
  -6   5  -5   77.19   13.12
   6   5   5   75.31   15.32
   6  -5   5   50.99   13.68
  -6   5  -5   51.23   11.57
  -6  -5  -5   45.20   12.07
  -6   5  -5   63.32   13.91
   6   6 -18  716.25   47.55
  -6   6  18  705.79   41.46
  -6   6  18  776.77   44.53
  -6  -6  18  675.06   41.30
  -6  -6  16  879.39   45.81
   6   6 -16  872.66   47.63
   6  -6 -16  929.11   49.37
  -6   6  16  924.77   43.28
  -6   6  16 1028.84   46.82
  -6  -6  16  952.80   44.94
  -6  -6  14  948.91   41.96
  -6   6  14  978.24   39.29
   6   6 -14  902.18   43.00
   6  -6 -14  982.00   47.30
  -6  -6  14  924.94   43.23
  -6   6  14  982.39   37.83
   6   6 -14 1007.81   42.88
   6  -6 -14 1001.97   42.58
   6   6 -12 1692.24   53.49
   6  -6 -12 1670.79   53.29
  -6   6  12 1614.98   32.44
  -6  -6  12 1752.69   41.66
   6  -6 -12 1702.52   59.67
   6   6 -12 1676.83   53.71
  -6  -6  12 1764.62   48.58
   6   6 -12 1720.42   56.18
  -6   6  12 1583.57   51.21
  -6  -6  12 1675.48   59.47
  -6   6  12 1755.12   49.15
   6   6 -10 2230.23   60.36
   6  -6 -10 2274.68   60.92
   6  -6 -10 2271.97   51.48
  -6  -6  10 2383.60   54.22
  -6   6  10 2213.34   50.41
  -6  -6  10 2295.91   56.11
   6   6 -10 2231.16   57.21
  -6  -6  10 2253.94   59.83
  -6   6  10 2211.75   53.44
   6   6 -10 2339.75   64.55
   6  -6 -10 2285.00   53.81
  -6   6  10 2264.30   54.31
  -6   6  10 2316.33   62.72
  -6  -6  10 2288.54   69.82
   6  -6  -8 2631.00   66.27
   6   6  -8 2564.46   65.68
   6   6  -8 2688.94   55.52
  -6  -6   8 2704.23   69.06
   6   6  -8 2657.06   63.08
  -6   6   8 2617.56   61.92
  -6   6   8 2670.31   58.62
   6  -6  -8 2676.22   57.59
   6   6  -8 2608.56   69.45
  -6  -6   8 2747.13   50.15
  -6  -6   8 2694.47   72.88
  -6   6   8 2645.50   69.89
   6  -6  -6 2490.09   63.51
   6   6  -6 2497.04   63.40
  -6   6   6 2430.31   63.23
  -6  -6   6 2476.42   67.92
   6   6  -6 2603.93   68.05
   6  -6  -6 2501.43   56.56
   6  -6  -6 2542.62   65.50
  -6   6   6 2493.04   64.41
  -6   6   6 2481.68   64.21
  -6  -6   6 2546.65   67.97
  -6   6   4 2443.83   65.26
   6   6  -4 2386.39   61.07
  -6   6   4 2439.68   53.54
   6   6  -4 2399.87   65.63
  -6   6   4 2350.19   60.72
  -6   6   4 2453.45   64.57
   6  -6  -4 2504.82   66.34
   6  -6  -4 2439.99   63.30
  -6   6   4 2299.97   55.26
  -6  -6   4 2468.81   65.93
  -6   6   4 2442.06   59.75
  -6  -6   2 2043.98   44.60
  -6   6   2 2059.54   60.89
  -6   6   2 2058.59   40.54
   6   6  -2 2006.12   58.59
   6  -6  -2 2001.13   58.24
   6   6  -2 1984.31   52.68
  -6  -6   2 2020.38   57.48
  -6   6   2 1987.64   57.25
  -6   6   2 1976.19   59.56
  -6   6   2 2034.09   52.29
   6  -6  -2 2042.98   55.44
  -6  -6   2 2093.65   59.45
  -6  -6   0 1375.66   48.99
  -6   6   0 1376.38   49.01
  -6  -6   0 1402.54   40.73
  -6   6   0 1381.74   50.10
   6   6   0 1435.38   41.45
  -6   6   0 1400.29   38.44
  -6   6   0 1384.14   49.59
   6   6   0 1384.49   49.78
   6  -6   0 1367.95   49.34
   6   6   2 1634.31   60.18
   6  -6   2 1648.44   60.33
  -6  -6  -2 1713.27   52.56
  -6  -6  -2 1565.16   58.27
  -6   6  -2 1642.03   59.53
  -6   6  -2 1671.59   58.31
  -6   6  -2 1644.17   57.58
  -6  -6  -2 1640.79   53.52
  -6  -6  -4 1058.40   44.82
  -6   6  -4 1012.47   45.85
   6   6   4  963.26   49.07
   6  -6   4  973.16   49.10
  -6   6  -4 1119.06   47.86
  -6  -6  -4 1010.04   49.64
  -6   6  -4 1028.35   50.16
  -6   7  17   33.73   10.35
  -6  -7  17   11.97    8.86
  -6   7  17   18.05    9.21
  -6  -7  17   11.21    7.09
   6   7 -17   44.26   11.65
   6  -7 -17   -2.84    7.80
  -6  -7  15  143.11   15.68
   6   7 -15  144.43   18.22
   6  -7 -15  190.30   22.03
  -6   7  15  150.08   15.79
  -6  -7  15  153.47   18.40
  -6   7  15  135.67   13.87
   6  -7 -15  196.52   19.54
   6   7 -15  182.01   18.77
   6   7 -13   53.16    9.94
   6  -7 -13   70.81   11.06
  -6  -7  13   66.50    7.18
   6   7 -13   45.07    9.40
  -6  -7  13   62.94    8.51
   6  -7 -13   66.36   12.28
  -6   7  13   62.27    8.96
   6   7 -13   96.06   13.67
  -6   7  13   66.65   10.01
  -6  -7  13   62.28   11.62
   6   7 -11  166.15   14.85
   6  -7 -11  152.12   14.16
  -6   7  11  148.95    8.52
  -6  -7  11  144.23   10.85
   6  -7 -11  155.43   10.60
  -6  -7  11  150.51   13.11
   6   7 -11  143.96   13.12
  -6   7  11  140.24   10.99
   6   7 -11  145.38   14.91
  -6   7  11  133.69   10.60
  -6   7  11  154.05   10.01
  -6   7  11  162.20   14.61
  -6  -7  11  159.36   16.82
   6   7  -9  209.33   14.92
   6  -7  -9  197.00   14.64
  -6  -7   9  209.04   11.89
  -6  -7   9  233.02   16.54
   6   7  -9  209.83   12.45
  -6  -7   9  208.10   13.82
  -6   7   9  198.67   12.30
  -6   7   9  223.80   12.21
   6   7  -9  209.46   16.79
   6  -7  -9  211.84   11.40
  -6   7   9  229.80   14.09
  -6   7   9  209.32   16.18
  -6  -7   9  210.14   11.36
  -6  -7   9  194.72   17.52
   6  -7  -7   13.19    4.85
   6   7  -7    8.45    4.35
  -6   7   7    8.07    4.14
  -6  -7   7    0.97    4.37
   6  -7  -7    6.75    2.75
   6   7  -7    3.68    4.85
  -6   7   7    9.11    5.30
  -6   7   7    7.51    4.90
   6  -7  -7    0.77    4.37
  -6  -7   7   -2.65    5.76
  -6   7   5    4.18    4.12
  -6  -7   5   15.61    6.27
   6   7  -5   21.08    5.82
   6  -7  -5   25.55    4.95
   6   7  -5   21.94    7.43
  -6   7   5   10.81    4.22
  -6   7   5   21.40    6.42
  -6  -7   5   13.62    5.59
   6   7  -5    9.84    2.23
   6  -7  -5   11.88    5.25
  -6   7   3  182.15   15.58
  -6   7   3  193.62   10.21
   6   7  -3  209.09   15.99
   6  -7  -3  183.85   14.87
   6   7  -3  177.49   13.81
  -6  -7   3  170.47   13.95
  -6   7   3  204.03   14.82
   6   7  -3  201.79   16.96
  -6   7   3  174.57   13.16
   6  -7  -3  186.11   16.47
  -6   7   3  188.61   15.92
   6  -7  -3  184.49   14.22
   6   7  -1  261.14   19.33
   6  -7  -1  227.68   17.94
  -6  -7   1  245.39   18.24
  -6   7   1  232.84   17.58
  -6  -7   1  236.11   12.64
  -6   7   1  229.88   18.45
   6   7  -1  274.62   16.90
  -6   7   1  232.23    7.38
  -6   7   1  248.85   14.97
  -6   7   1  270.10   20.09
   6  -7  -1  228.83   14.52
  -6   7  -1  167.08   17.02
  -6  -7  -1  181.96   17.65
  -6   7  -1  187.02   18.27
  -6  -7  -1  166.07   13.47
   6   7   1  156.75   12.80
  -6   7  -1  175.77   11.64
  -6   7  -1  168.04   16.99
   6   7   1  149.14   16.17
   6  -7   1  164.05   16.98
  -6   7  -3   35.11    9.45
  -6  -7  -3   58.59   11.93
  -6   7  -3   58.42   11.36
  -6   7  -3   69.35   12.83
  -6  -7  -3   41.21    8.58
   6   7   3   55.39   12.10
   6  -7   3   33.36   10.36
  -6   7  -5   67.76   13.29
  -6   7  -5   50.72   11.05
  -6   8  18  704.55   41.56
  -6   8  18  722.46   44.27
  -6  -8  16  613.37   38.48
   6   8 -16  631.71   39.76
   6  -8 -16  563.98   39.44
  -6   8  16  548.24   32.02
  -6   8  16  599.39   35.20
  -6  -8  16  544.15   33.60
  -6   8  14  931.17   37.47
  -6  -8  14  910.08   42.44
   6   8 -14  966.33   44.73
   6  -8 -14  930.18   47.49
  -6  -8  14  999.22   35.61
  -6  -8  14  890.52   43.20
  -6   8  14  937.55   37.96
   6   8 -14  927.88   41.31
   6  -8 -14  966.23   42.20
   6   8 -12 1130.09   41.54
   6  -8 -12 1095.47   41.11
  -6  -8  12 1086.21   38.92
   6   8 -12 1033.23   41.19
   6  -8 -12 1029.85   33.31
  -6  -8  12 1174.80   35.38
   6   8 -12 1108.03   44.71
  -6   8  12 1030.50   27.79
  -6   8  12 1072.72   40.83
  -6  -8  12 1160.40   48.91
  -6   8  12 1165.73   36.59
   6   8 -10  695.00   28.94
   6  -8 -10  673.68   28.66
  -6  -8  10  617.80   28.82
   6   8 -10  686.44   27.13
  -6  -8  10  690.28   25.80
   6  -8 -10  695.10   25.91
  -6   8  10  645.32   22.62
  -6  -8  10  672.51   26.47
  -6   8  10  654.99   22.90
   6   8 -10  665.90   31.82
  -6   8  10  658.61   24.03
  -6   8  10  643.91   29.76
  -6  -8  10  601.11   32.30
  -6   8  10  661.19   22.02
   6  -8  -8 1134.46   37.81
   6   8  -8 1183.52   38.35
  -6  -8   8 1199.00   39.39
  -6   8   8 1158.98   36.15
  -6  -8   8 1152.32   28.88
  -6  -8   8 1156.57   41.90
   6  -8  -8 1138.88   28.56
   6   8  -8 1143.97   41.85
  -6   8   8 1130.58   36.98
  -6   8   8 1191.35   41.43
  -6  -8   8 1197.00   29.37
  -6  -8   8 1185.12   44.21
   6  -8  -6 1459.42   44.26
   6   8  -6 1374.23   43.41
  -6   8   6 1390.11   44.02
  -6  -8   6 1537.87   50.39
   6   8  -6 1414.48   47.35
  -6   8   6 1436.25   42.58
   6  -8  -6 1472.34   36.24
   6   8  -6 1452.92   48.74
   6  -8  -6 1478.24   49.48
  -6   8   6 1398.96   44.77
  -6   8   6 1492.30   46.25
  -6  -8   6 1483.57   49.50
  -6  -8   4  409.61   21.19
  -6   8   4  436.01   21.47
  -6   8   4  454.43   24.46
  -6  -8   4  397.14   25.03
   6   8  -4  459.28   25.35
  -6   8   4  463.26   17.89
   6  -8  -4  480.52   26.90
  -6   8   4  417.65   23.37
  -6   8   4  440.40   22.20
   6   8  -4  423.66   18.21
  -6   8   4  418.59   18.20
   6   8  -4  450.45   23.36
  -6  -8   2 1362.86   44.48
  -6   8   2 1328.52   43.72
  -6  -8   2 1314.17   30.41
  -6   8   2 1308.04   47.06
   6   8  -2 1307.08   42.39
  -6   8   2 1322.86   32.18
   6   8  -2 1422.38   46.51
   6  -8  -2 1318.47   44.95
  -6   8   2 1305.07   40.87
  -6   8   2 1268.94   46.73
   6  -8  -2 1313.81   50.67
   6  -8  -2 1324.84   42.25
  -6  -8   0  637.75   31.69
  -6   8   0  643.67   31.38
  -6   8   0  568.21   31.48
  -6  -8   0  629.45   24.27
   6   8   0  608.70   27.17
  -6   8   0  611.32   24.69
  -6   8   0  692.92   34.35
   6   8   0  647.90   32.62
   6  -8   0  688.29   33.19
  -6   8  -2  415.02   27.93
  -6  -8  -2  470.93   24.64
   6   8   2  461.87   23.30
  -6   8  -2  446.23   29.05
   6   8   2  491.91   31.13
   6  -8   2  479.34   30.26
  -6  -8  -2  422.59   28.70
  -6   8  -2  479.65   30.18
  -6   8  -4  764.96   40.18
   6   8   4  670.45   40.45
   6  -8   4  666.91   40.12
  -6   8  -4  667.71   38.10
  -6  -8  -4  707.56   40.91
  -6   8  -4  730.79   41.49
  -6   9  17  134.97   19.29
  -6  -9  17  236.89   25.63
   6   9 -17  193.36   24.43
  -6   9  17  203.36   21.73
  -6  -9  17  196.97   21.23
   6   9 -15   13.95    8.51
   6  -9 -15   13.40    9.47
  -6   9  15    5.05    5.90
  -6  -9  15    9.65    7.84
  -6   9  15    5.12    4.78
  -6  -9  15   -2.64    6.38
   6  -9 -13    7.04    6.07
   6   9 -13    2.86    4.96
  -6  -9  13   -0.89    3.14
   6   9 -13   -3.48    5.12
  -6  -9  13    7.03    5.65
   6  -9 -13   -2.52    6.12
  -6   9  13   12.09    4.63
   6   9 -13   24.27    9.51
  -6   9  13   -3.19    5.42
  -6  -9  13   10.74    6.32
   6   9 -11   85.74   10.63
   6  -9 -11   93.42   11.27
  -6  -9  11   98.35   10.10
   6  -9 -11   82.47    9.11
  -6   9  11   82.78    7.09
   6   9 -11   76.87   10.25
  -6  -9  11   91.46   10.87
   6   9 -11  101.91   13.07
  -6   9  11   95.25   11.96
  -6   9  11   79.55    7.39
  -6   9  11   96.61    8.44
  -6  -9  11   96.86   13.51
   6   9  -9    6.43    5.19
   6  -9  -9    3.79    3.76
   6  -9  -9    3.36    3.69
  -6   9   9    2.00    3.35
  -6  -9   9    9.04    4.96
   6   9  -9    0.48    3.00
  -6  -9   9    1.98    2.81
  -6  -9   9   -1.26    4.32
  -6   9   9    1.49    1.86
   6   9  -9    5.10    5.46
  -6   9   9   -1.01    2.76
  -6   9   9    2.87    4.79
  -6  -9   9    5.14    3.18
  -6  -9   9    3.52    5.67
   6  -9  -7   36.19    6.50
   6   9  -7   26.06    6.33
  -6   9   7   22.20    5.23
  -6  -9   7   50.25    8.76
  -6  -9   7   41.76    8.47
   6   9  -7   36.48    8.52
  -6   9   7   33.39    7.21
   6  -9  -7   34.75    3.86
   6   9  -7   37.43    8.58
  -6   9   7   32.04    6.71
  -6   9   7   23.00    6.29
  -6  -9   7   47.03    9.88
   6  -9  -7   33.50    8.05
   6  -9  -5   82.27   10.11
   6   9  -5   78.13    9.23
  -6   9   5   60.74    8.77
  -6  -9   5   73.70   10.73
   6   9  -5   63.10    9.83
  -6   9   5   62.80    7.68
   6  -9  -5   67.18    6.75
   6   9  -5   61.20    9.71
  -6   9   5   61.00    9.21
  -6   9   5   74.85   10.32
   6  -9  -5   60.79    9.91
   6   9  -5   68.87    6.63
  -6   9   5   75.81    5.77
  -6  -9   3  205.07   15.35
  -6   9   3  211.18   15.22
  -6   9   3  211.71   17.23
  -6  -9   3  209.17   19.37
   6   9  -3  247.20   17.43
   6   9  -3  203.49   16.03
   6  -9  -3  198.92   15.53
  -6   9   3  224.79   12.38
   6   9  -3  222.39   17.86
  -6   9   3  225.67   16.09
   6  -9  -3  220.56   19.73
  -6   9   3  213.16   17.88
   6   9  -3  228.10   15.17
  -6   9   3  235.53   13.72
   6   9  -1   66.51   10.64
   6  -9  -1   72.70   10.89
  -6   9   1   49.75    9.80
  -6  -9   1   71.82    6.69
   6   9  -1   83.17   10.99
  -6   9   1   55.03    5.16
   6  -9  -1   88.39   13.39
  -6   9   1   72.20   12.05
  -6   9   1   72.80    8.71
  -6  -9   1   55.96    9.30
  -6   9   1   70.24   10.37
  -6  -9  -1    4.79    5.01
  -6   9  -1   14.82    7.52
   6   9   1    9.63    5.55
  -6   9  -1   14.16    5.75
  -6   9  -1   14.90    4.36
   6   9   1    6.33    6.49
   6  -9   1    5.69    6.09
  -6   9  -1    5.82    6.75
  -6  -9  -3   64.43   12.72
  -6   9  -3   59.13   12.11
  -6   9  -3   59.30   11.99
   6   9   3   60.28   12.99
   6  -9   3   50.00   11.82
  -6   9  -3   71.65   13.28
  -6   9  -5   11.58    8.55
  -6   9  -5   17.75    8.65
   6 -10 -16  385.22   32.76
  -6 -10  16  403.70   31.48
  -6  10  16  420.96   31.33
  -6  10  16  419.75   29.73
  -6 -10  16  330.15   26.24
   6  10 -16  428.58   33.07
   6  10 -14  896.69   43.71
   6 -10 -14  911.21   48.12
  -6 -10  14  938.18   37.48
  -6 -10  14  879.75   43.81
  -6  10  14  843.79   43.92
  -6  10  14  866.00   38.04
   6  10 -14  884.88   40.15
   6 -10 -14  933.26   41.45
  -6 -10  14  944.55   44.56
  -6  10  14  913.98   36.34
  -6 -10  12 1444.66   49.18
   6  10 -12 1444.28   50.69
   6 -10 -12 1369.34   43.95
  -6 -10  12 1447.05   45.01
  -6  10  12 1340.50   48.38
   6  10 -12 1366.51   52.39
  -6 -10  12 1491.26   56.84
  -6  10  12 1389.23   40.12
   6  10 -12 1329.42   46.88
   6 -10 -12 1420.43   47.98
   6  10 -10  593.75   26.69
   6 -10 -10  583.67   26.34
   6 -10 -10  572.94   26.10
  -6  10  10  573.63   22.42
   6  10 -10  570.25   25.43
  -6 -10  10  579.50   26.89
  -6 -10  10  588.81   29.74
   6  10 -10  577.14   30.23
  -6 -10  10  585.81   25.51
  -6  10  10  580.35   23.09
  -6  10  10  569.22   29.04
  -6  10  10  577.79   17.82
  -6 -10  10  545.35   30.91
   6 -10  -8 2019.31   54.10
   6  10  -8 2098.31   54.69
  -6 -10   8 2097.19   60.27
  -6  10   8 1968.68   54.14
  -6 -10   8 2077.49   62.92
  -6 -10   8 2093.41   45.45
  -6  10   8 2109.19   60.44
   6  10  -8 2073.33   61.82
  -6  10   8 2003.99   55.20
  -6  10   8 2077.06   60.69
  -6 -10   8 2003.36   48.95
  -6 -10   8 2182.67   65.60
  -6  10   6 1294.43   43.60
  -6 -10   6 1336.74   49.04
  -6  10   6 1321.29   42.46
   6  10  -6 1350.13   48.14
   6 -10  -6 1356.25   31.24
   6  10  -6 1356.58   47.84
   6 -10  -6 1441.25   51.94
  -6  10   6 1343.76   45.02
  -6  10   6 1401.65   46.17
   6 -10  -6 1345.99   42.06
   6  10  -6 1320.03   41.40
  -6  10   4  729.48   33.25
  -6 -10   4  796.59   37.56
   6  10  -4  764.68   33.64
  -6  10   4  761.62   23.17
  -6  10   4  751.63   27.10
   6  10  -4  681.82   33.22
  -6  10   4  809.80   32.63
   6  10  -4  712.06   27.14
  -6  10   4  731.45   33.49
   6 -10  -4  790.90   38.10
  -6 -10   4  784.03   29.83
  -6  10   4  744.56   28.85
  -6  10   2 1226.53   46.67
  -6 -10   2 1161.41   26.54
  -6 -10   2 1245.42   50.85
   6  10  -2 1161.63   46.27
  -6  10   2 1187.64   40.35
  -6 -10   2 1142.60   40.45
  -6  10   2 1198.53   40.84
  -6  10   2 1148.00   45.84
   6 -10  -2 1186.19   50.80
   6  10  -2 1163.84   42.35
  -6  10   2 1216.95   33.21
   6  10  -2 1149.55   41.98
   6 -10  -2 1148.42   41.67
   6  10   0 1257.92   44.00
   6 -10   0 1198.43   46.18
   6  10   0 1169.96   46.09
  -6  10   0 1184.86   48.52
  -6  10   0 1292.38   40.81
   6 -10   0 1117.88   53.24
  -6  10   0 1169.17   48.61
  -6 -10   0 1261.52   46.28
  -6  10   0 1213.98   45.34
  -6  10  -2  257.03   22.18
  -6 -10  -2  298.99   23.95
   6  10   2  288.70   20.05
  -6  10  -2  237.38   22.58
   6  10   2  309.00   25.04
   6 -10   2  240.42   21.89
  -6  10  -2  232.53   21.98
  -6 -10  -4  733.03   41.74
  -6  10  -4  630.45   38.55
  -6  10  -4  698.24   40.04
   6  10   4  630.77   39.86
   6 -10   4  697.95   41.27
  -6  10  -4  686.95   40.05
   6  11 -17   15.31    9.90
  -6  11  17    3.75    7.03
  -6 -11  17    8.05    8.27
   6  11 -15   46.03   12.87
   6 -11 -15   25.48   12.10
  -6 -11  15   32.40   10.80
  -6  11  15   22.89    9.52
  -6  11  15   22.98    7.85
  -6  11  15   31.50    9.44
  -6 -11  15   14.22    6.90
   6  11 -13   42.14    9.33
   6 -11 -13   35.88    8.60
  -6 -11  13   25.26    7.53
   6  11 -13   21.68    9.18
  -6 -11  13   28.66    7.48
   6 -11 -13   26.14    9.33
  -6  11  13   20.61    7.91
   6  11 -13   41.16   10.76
  -6  11  13   12.40    5.94
  -6 -11  13   42.92   10.47
   6 -11 -11   89.91   10.81
   6  11 -11   96.26   11.28
  -6  11  11   80.77    7.83
  -6 -11  11   91.80   11.26
   6 -11 -11   86.52   10.70
   6  11 -11   79.05   10.75
  -6 -11  11   73.61   11.40
  -6  11  11   59.76   10.97
   6  11 -11   75.39   12.04
  -6  11  11   86.40   12.06
  -6  11  11   77.12    7.59
  -6 -11  11   70.87   12.01
  -6 -11  11   59.63    9.62
   6 -11  -9   51.52    7.72
   6  11  -9   58.09    8.00
   6 -11  -9   58.79    9.43
  -6  11   9   57.35    7.95
  -6 -11   9   55.79    9.33
  -6 -11   9   55.72    6.70
  -6 -11   9   52.01    9.79
  -6  11   9   52.98   10.50
   6  11  -9   54.14    9.57
  -6  11   9   55.52    9.95
  -6  11   9   52.95    7.73
  -6 -11   9   62.69   11.21
  -6 -11   9   61.59    7.93
   6 -11  -7   59.19    7.89
   6  11  -7   53.89    7.62
  -6  11   7   52.36    8.21
  -6 -11   7   63.12   10.33
  -6 -11   7   61.95   11.06
  -6 -11   7   76.27    4.99
   6  11  -7   57.80   11.14
  -6  11   7   68.54    9.86
   6  11  -7   71.76   11.03
  -6  11   7   99.37   12.23
  -6  11   7   79.60   10.22
  -6 -11   7   65.45   11.63
   6 -11  -7   76.88   12.73
  -6  11   5    3.81    4.16
   6 -11  -5   -3.42    4.74
   6  11  -5    2.39    4.05
  -6  11   5    6.70    4.72
  -6 -11   5    2.50    5.03
   6  11  -5    0.97    5.59
  -6  11   5    0.03    3.65
   6  11  -5   -1.34    4.93
   6 -11  -5    3.90    2.45
  -6  11   5   -0.54    4.51
  -6  11   5   -0.20    4.57
   6  11  -5    6.23    3.91
   6 -11  -5   -2.16    6.11
  -6 -11   3    2.38    4.08
  -6  11   3    4.47    4.02
  -6  11   3    2.38    5.26
  -6 -11   3    4.45    6.23
   6  11  -3    8.33    5.31
  -6  11   3    3.33    3.17
   6  11  -3    0.04    5.22
  -6  11   3   -2.43    5.80
  -6  11   3   10.61    4.91
   6 -11  -3    5.22    5.96
   6  11  -1   49.75    9.54
   6 -11  -1   40.08    8.96
  -6  11   1   31.03    8.09
   6  11  -1   66.41   10.87
  -6 -11   1   58.93    9.38
  -6  11   1   40.82    8.17
   6  11  -1   66.49   12.05
  -6  11   1   44.10   10.37
  -6  11   1   44.23    7.83
   6 -11  -1   54.40   12.38
   6  11   1   10.65    6.93
   6 -11   1    3.04    6.58
  -6 -11  -1   12.13    7.12
  -6  11  -1    7.23    6.79
  -6  11  -1    1.61    7.41
   6  11   1    6.80    5.77
  -6  11  -1    8.93    7.64
   6 -11   1    2.66    8.08
  -6 -11  -3   45.66   12.11
  -6  11  -3   44.39   10.68
  -6  11  -3   36.60   10.53
  -6  11  -3   52.48   12.68
   6  11   3   57.84   12.69
   6 -11   3   33.23   10.26
  -6 -12  16  390.66   31.66
  -6  12  16  332.90   30.51
  -6  12  16  339.53   26.86
  -6 -12  16  362.19   27.23
   6  12 -16  353.43   31.07
   6  12 -14 1208.14   53.44
   6 -12 -14 1284.56   59.81
  -6 -12  14 1159.87   46.13
  -6 -12  14 1095.62   50.97
  -6  12  14 1217.06   54.46
  -6  12  14 1236.14   47.96
  -6 -12  14 1205.37   53.64
  -6  12  14 1206.32   47.68
   6  12 -12 1348.93   46.55
   6 -12 -12 1283.25   45.54
   6  12 -12 1316.99   50.30
   6 -12 -12 1317.17   46.81
  -6 -12  12 1311.43   46.49
  -6 -12  12 1365.37   50.56
  -6  12  12 1346.04   53.63
  -6  12  12 1240.93   48.33
   6  12 -12 1283.29   51.89
  -6 -12  12 1364.37   50.48
  -6 -12  12 1354.79   55.00
   6  12 -10 1677.45   49.00
   6 -12 -10 1602.35   48.17
   6 -12 -10 1570.98   52.23
  -6  12  10 1654.79   46.16
  -6 -12  10 1669.30   54.12
  -6 -12  10 1659.85   57.04
  -6  12  10 1672.32   57.79
   6  12 -10 1639.68   56.64
  -6  12  10 1685.40   56.12
  -6  12  10 1572.56   45.79
  -6 -12  10 1720.08   50.99
  -6 -12  10 1637.93   59.56
   6  12  -8 1315.17   39.95
   6 -12  -8 1267.25   39.59
  -6  12   8 1254.58   42.49
  -6 -12   8 1288.73   47.91
  -6 -12   8 1352.79   50.93
  -6  12   8 1406.67   48.55
   6  12  -8 1368.60   52.61
  -6  12   8 1294.51   47.84
   6  12  -8 1343.22   48.85
  -6  12   8 1369.94   44.23
  -6 -12   8 1359.43   39.96
  -6 -12   8 1386.04   51.99
  -6 -12   6 1974.91   64.23
  -6  12   6 1903.55   57.85
  -6 -12   6 1941.52   64.34
  -6  12   6 1933.33   56.02
   6  12  -6 1983.66   63.38
  -6  12   6 1910.50   59.03
   6  12  -6 1899.09   60.67
  -6  12   6 1890.44   58.18
   6 -12  -6 1884.76   66.68
   6 -12  -6 1890.53   51.78
   6  12  -6 1942.81   51.88
  -6  12   4 1556.79   53.58
  -6 -12   4 1632.70   58.96
   6  12  -4 1631.07   54.90
  -6  12   4 1564.78   45.88
   6  12  -4 1508.54   54.30
  -6  12   4 1556.08   51.39
  -6  12   4 1488.18   52.84
   6 -12  -4 1571.39   60.24
  -6 -12   4 1513.14   44.73
  -6  12   4 1598.20   44.95
   6 -12  -4 1560.85   47.86
   6  12  -4 1515.73   46.90
  -6  12   2 2749.89   80.36
  -6 -12   2 2772.31   85.47
  -6  12   2 2668.47   72.71
   6  12  -2 2860.83   82.13
  -6 -12   2 2706.41   70.64
  -6  12   2 2782.10   70.46
   6 -12  -2 2742.58   88.91
  -6  12   2 2737.29   80.61
   6  12  -2 2745.97   76.82
  -6  12   2 2820.51   65.40
   6  12   0  973.24   40.82
   6  12   0  963.38   41.59
   6 -12   0  946.97   40.66
  -6  12   0  973.60   45.32
   6  12   0 1010.23   46.60
  -6  12   0  949.99   37.13
   6 -12   0  986.84   52.01
  -6  12   0  950.71   44.96
  -6 -12   0 1019.24   40.93
  -6  12   0  929.76   39.26
  -6 -12  -2  545.99   32.51
  -6  12  -2  600.69   33.77
   6  12   2  599.51   32.17
   6 -12   2  600.80   42.55
  -6  12  -2  573.91   36.35
   6  12   2  568.54   34.34
   6 -12   2  542.45   33.11
  -6  12  -2  580.53   35.86
   6  12   4  872.19   46.83
   6 -12   4  819.04   45.01
  -6 -12  -4  768.50   43.25
  -6  12  -4  800.64   43.94
   6  13 -15    7.52    8.66
   6 -13 -15   10.16   10.81
  -6  13  15    2.15    7.29
  -6 -13  15    1.57    6.71
  -6  13  15   -5.04    6.28
  -6  13  15   13.13    7.74
  -6 -13  15   -0.71    5.76
   6 -13 -13    6.59    6.31
   6  13 -13   17.48    6.76
  -6 -13  13   21.66    7.19
  -6 -13  13    2.37    5.03
  -6  13  13   13.74    7.32
   6  13 -13   18.43    9.87
  -6  13  13   15.95    7.56
  -6 -13  13   24.62    9.68
  -6 -13  13   20.05    9.81
   6  13 -11   28.81    6.22
   6 -13 -11   16.01    4.96
  -6 -13  11   18.99    7.11
   6 -13 -11   31.05    7.66
  -6 -13  11   16.35    7.09
  -6  13  11   28.26    9.32
   6  13 -11   22.85    7.97
  -6  13  11   20.09    7.75
  -6 -13  11   20.38    9.10
  -6 -13  11   25.96    7.28
   6 -13  -9   19.24    5.06
   6  13  -9   26.10    5.96
  -6  13   9   34.35    7.00
   6 -13  -9   24.63    7.63
  -6 -13   9   34.26    8.26
  -6 -13   9   33.70    9.72
  -6  13   9   20.10    7.43
   6  13  -9   31.57    9.10
  -6  13   9   30.76    6.58
  -6  13   9   25.93    8.48
  -6 -13   9   32.17    9.82
  -6 -13   9   25.21    5.98
  -6  13   7   53.13    9.12
  -6 -13   7   28.20    8.62
  -6 -13   7   52.61   11.12
   6  13  -7   44.33   10.40
  -6  13   7   41.72    8.69
   6  13  -7   61.14   10.92
  -6  13   7   40.52    8.13
  -6  13   7   35.54    8.58
   6 -13  -7   49.89   12.16
   6 -13  -7   37.07    6.43
   6  13  -7   30.34    5.46
  -6  13   5    1.54    3.25
  -6 -13   5    3.29    3.56
   6 -13  -5    6.14    4.21
   6  13  -5    9.55    4.39
  -6  13   5    1.09    4.61
  -6 -13   5    3.57    6.87
  -6  13   5    1.68    4.54
   6  13  -5   -6.57    6.14
   6  13  -5   -5.83    6.01
  -6  13   5    5.98    6.46
  -6  13   5   -1.86    6.25
   6 -13  -5   11.23    8.49
  -6 -13   3    4.87    4.40
  -6  13   3    6.06    4.33
  -6  13   3   -3.60    5.86
  -6 -13   3   -1.18    6.57
   6  13  -3   12.27    6.91
  -6  13   3    0.59    3.95
   6  13  -3    9.00    6.42
  -6  13   3   -4.29    5.73
  -6  13   3   -8.10    5.52
   6 -13  -3    2.93    7.74
   6  13  -1   36.40    8.35
   6 -13  -1   28.24    7.55
  -6 -13   1   24.77    7.61
  -6  13   1   35.68    7.57
  -6  13   1   37.00   10.98
  -6 -13   1   16.80    9.66
   6  13  -1   43.79    9.78
   6  13  -1   26.70    8.80
  -6  13   1   54.07   12.71
  -6  13   1   35.24    7.95
   6 -13  -1   34.72   11.38
   6  13   1  -10.27    5.89
   6 -13   1   -1.41    5.91
  -6 -13  -1    1.92    5.03
  -6  13  -1    1.31    5.02
   6  13   1    8.49    6.23
   6  13   1    4.74    7.63
  -6  13  -1   -0.99    6.84
   6 -13   1    6.02   10.29
  -6  13  -1   -1.25    7.53
  -6 -13  -3   42.53   11.41
  -6  14  14  743.57   38.09
  -6 -14  14  835.47   44.39
  -6  14  14  843.64   45.20
   6 -14 -14  766.17   48.13
  -6 -14  14  755.40   38.76
   6 -14 -12 1065.63   40.82
   6 -14 -12 1095.33   46.05
  -6 -14  12 1194.18   47.12
  -6 -14  12 1190.23   49.58
  -6  14  12 1131.04   50.56
  -6  14  12 1130.02   47.58
   6  14 -12 1210.47   51.04
  -6 -14  12 1172.97   48.26
  -6 -14  12 1179.45   52.30
   6 -14 -10  488.17   23.13
   6 -14 -10  449.31   27.90
  -6  14  10  483.13   23.77
  -6 -14  10  430.95   27.68
  -6 -14  10  468.50   29.93
  -6  14  10  472.99   29.72
   6  14 -10  445.03   28.51
  -6  14  10  472.49   28.91
  -6 -14  10  440.95   25.37
  -6  14  10  449.24   22.68
  -6 -14  10  477.19   31.08
   6  14  -8 2019.99   51.13
   6 -14  -8 1963.35   50.78
   6 -14  -8 1954.77   64.86
  -6  14   8 1927.56   58.23
  -6 -14   8 1906.77   64.74
  -6 -14   8 2057.38   68.58
  -6  14   8 1988.07   63.11
   6  14  -8 1955.46   69.14
  -6  14   8 1930.51   63.44
   6  14  -8 1872.79   61.83
  -6  14   8 1950.87   58.34
  -6 -14   8 2016.21   68.29
  -6 -14   6 1181.28   36.86
  -6  14   6 1248.86   46.65
  -6 -14   6 1194.14   51.12
  -6 -14   6 1292.21   53.26
  -6  14   6 1249.47   45.15
   6  14  -6 1266.82   51.27
  -6  14   6 1250.73   47.63
   6  14  -6 1186.61   47.07
  -6  14   6 1201.04   46.16
   6 -14  -6 1295.41   56.70
   6 -14  -6 1279.63   37.97
   6  14  -6 1260.47   37.46
  -6 -14   4  567.71   23.71
  -6  14   4  489.64   29.43
  -6 -14   4  568.57   34.56
   6  14  -4  479.99   30.07
  -6  14   4  548.48   26.71
  -6  14   4  545.35   29.88
   6  14  -4  523.68   30.44
   6 -14  -4  557.36   36.58
  -6  14   4  530.59   31.01
   6 -14  -4  528.39   25.31
   6  14  -4  534.16   24.91
  -6  14   2  831.59   41.02
  -6 -14   2  889.03   45.77
   6  14  -2  826.10   40.62
  -6  14   2  857.15   37.40
   6  14  -2  757.47   38.42
  -6  14   2  751.18   30.65
  -6  14   2  841.10   41.75
   6 -14  -2  826.62   47.20
  -6 -14   2  805.13   32.11
   6  14   0  884.32   41.49
   6 -14   0  741.16   47.74
  -6  14   0  765.95   42.15
  -6  14   0  834.34   43.21
   6  14   0  831.29   43.45
  -6  14   0  821.47   36.45
   6  14   2  212.80   19.81
   6  14   2  196.76   22.51
  -6  15  15    4.67    6.06
  -6 -15  15   -8.23    6.95
  -6 -15  13    5.84    6.42
  -6 -15  13   -0.60    5.27
  -6  15  13   12.20    9.81
  -6  15  13   -0.58    5.94
  -6 -15  13   -4.68    6.90
  -6 -15  11   19.80    8.23
   6 -15 -11   29.22   10.16
  -6 -15  11   27.02    8.66
  -6  15  11   23.66    9.06
   6  15 -11   26.40    8.82
  -6  15  11   12.42    7.88
  -6 -15  11   25.85    9.27
  -6 -15  11   19.44    7.48
  -6  15   9    2.63    4.96
   6 -15  -9   12.51    6.80
  -6 -15   9   19.19    7.10
  -6 -15   9    2.36    5.76
  -6  15   9    0.05    5.58
   6  15  -9    2.07    5.46
  -6  15   9    1.79    4.84
  -6  15   9    6.45    7.27
  -6 -15   9   20.93    6.89
  -6 -15   9    3.91    5.62
  -6 -15   7   43.62   10.64
   6  15  -7    3.56    6.63
  -6  15   7   18.21    6.77
   6  15  -7   28.36    8.45
  -6  15   7   39.71    9.09
   6 -15  -7   51.75   13.63
  -6  15   7   36.60   10.01
  -6  15   7   27.86    7.44
   6 -15  -7   35.47   10.19
  -6 -15   7   24.77    7.79
  -6  15   5    7.15    7.72
  -6 -15   5    1.49    7.41
  -6 -15   5    2.33    5.49
  -6  15   5    3.39    5.33
   6  15  -5    5.25    6.43
   6  15  -5    1.00    6.22
  -6  15   5   13.22    6.78
  -6  15   5    5.13    6.21
   6 -15  -5    8.65    7.64
  -6 -15   3  277.80   25.38
   6  15  -3  302.72   24.33
  -6  15   3  228.93   17.26
  -6  15   3  254.82   21.27
   6  15  -3  306.79   24.15
   6 -15  -3  284.48   28.09
  -6  15   3  272.62   23.11
  -6  15   3  311.58   24.44
  -6  15   1    1.77    6.00
  -6 -15   1    0.49    6.42
   6  15  -1    6.52    8.73
   6  15  -1   14.37    7.95
  -6  15   1   -2.17    5.90
  -6  15   1   10.71    6.51
   6 -15  -1    6.56    9.06
  -6  15  -1   32.03   10.23
   6  15   1   40.21   10.45
  -6  15  -1   46.46   13.00
   6  15   1   50.08   12.44
   6 -15   1   40.04   14.23
  -6  16  14  365.59   27.95
  -6 -16  14  362.58   29.61
  -6 -16  12  287.85   25.09
  -6  16  12  295.75   26.11
   6  16 -12  336.19   27.02
  -6  16  12  278.92   23.97
   6 -16 -12  320.76   25.74
  -6 -16  12  286.41   24.09
  -6 -16  12  269.20   25.40
  -6 -16  10  226.96   22.11
  -6  16  10  236.63   22.13
  -6  16  10  243.08   22.05
   6  16 -10  199.53   19.85
   6 -16 -10  223.91   21.14
  -6 -16  10  197.43   20.40
  -6 -16  10  241.98   23.66
   6 -16  -8  490.00   31.98
  -6  16   8  495.72   27.96
  -6 -16   8  553.24   34.23
  -6 -16   8  536.15   34.29
  -6  16   8  469.39   29.55
   6  16  -8  464.74   33.10
  -6  16   8  461.82   29.71
   6  16  -8  510.70   30.04
  -6  16   8  503.71   27.88
  -6 -16   8  487.28   32.89
  -6 -16   6  488.73   33.56
  -6  16   6  458.55   27.55
   6  16  -6  500.03   33.26
   6  16  -6  462.49   28.30
  -6  16   6  502.45   30.55
  -6  16   6  473.96   28.89
   6 -16  -6  438.65   34.37
  -6  16   6  380.59   26.27
  -6 -16   6  444.07   31.95
  -6  16   4  124.34   16.36
  -6 -16   4  113.25   16.75
   6  16  -4  106.39   15.83
  -6  16   4  106.02   13.11
   6  16  -4   80.56   13.44
  -6  16   4   94.36   14.21
  -6  16   4  102.33   14.15
   6 -16  -4   90.85   16.34
  -6 -16   2  518.85   36.48
   6  16  -2  500.80   32.46
   6  16  -2  476.16   31.57
  -6  16   2  534.57   31.03
   6 -16  -2  545.77   40.33
  -6  16   2  476.04   32.47
  -6  16   2  454.75   31.34
  -6  16   0  260.13   24.90
  -6 -16   0  244.07   26.39
   6  16   0  234.90   22.06
  -6  16   0  220.45   23.75
   6 -16   0  244.43   28.98
  -6  16   0  205.40   19.01
   6  16   0  266.29   25.06
   6  16   2  320.51   27.31
  -6 -17  13   77.81   14.42
  -6 -17  13   59.16   13.11
  -6  17  13   56.92   12.44
  -6 -17  13   53.73   11.35
  -6 -17  11   30.45   10.67
   6 -17 -11   17.29    8.22
  -6 -17  11    2.66    6.11
  -6  17  11   10.77    7.83
   6  17 -11   12.15    7.98
  -6  17  11    7.40    6.32
  -6 -17  11    6.84    8.41
  -6  17   9  149.29   15.44
   6 -17  -9  161.97   19.40
  -6 -17   9  121.55   17.50
  -6 -17   9  151.23   19.18
   6  17  -9  166.21   20.81
  -6  17   9  145.76   17.85
   6  17  -9  169.16   17.88
  -6  17   9  138.83   17.62
  -6 -17   9  175.23   20.43
  -6 -17   7   13.47    8.91
  -6  17   7   19.55    7.52
   6  17  -7    7.12    8.92
   6  17  -7   -2.44    6.50
  -6  17   7    0.89    5.21
  -6  17   7    4.98    7.08
   6 -17  -7    4.74    6.80
  -6  17   7    5.40    5.02
  -6 -17   7   -4.80    6.40
  -6  17   5   20.59    9.51
  -6 -17   5    9.32    7.28
  -6 -17   5   15.96    7.87
   6  17  -5   11.48    8.06
  -6  17   5    9.00    6.41
   6  17  -5   12.09    7.89
  -6  17   5   16.22    7.46
  -6  17   5    2.59    6.44
   6 -17  -5   24.51   12.23
  -6  17   3   27.37    9.12
  -6 -17   3   50.34   12.55
   6  17  -3   27.48   10.83
  -6  17   3   35.45    8.39
   6  17  -3   20.32    8.75
  -6  17   3   38.68   10.53
  -6  17   3   22.65    7.94
   6 -17  -3   34.73   14.82
  -6  17   1    3.65    7.49
  -6 -17   1    8.12    8.79
   6  17  -1   20.96    9.12
   6 -17  -1   21.00   12.05
  -6  17   1    9.07    7.84
  -6  17   1   12.12    7.17
   6  17   1   36.32   11.57
  -6 -18  12  572.29   37.92
  -6  18  12  525.48   35.28
  -6 -18  12  537.10   35.55
  -6 -18  12  523.53   36.86
  -6 -18  10  374.87   30.66
  -6  18  10  316.68   27.23
   6  18 -10  354.62   26.77
  -6  18  10  378.54   28.78
   6 -18 -10  319.63   27.61
  -6 -18  10  355.12   29.26
  -6 -18  10  394.93   31.47
   6  18  -8  576.86   33.01
  -6  18   8  615.89   36.69
  -6  18   8  579.40   34.96
   6  18  -8  621.36   40.48
  -6 -18   8  695.73   41.70
   6 -18  -8  578.54   37.82
  -6  18   8  604.75   33.42
  -6 -18   8  627.17   39.43
  -6 -18   6  506.59   36.30
  -6  18   6  469.47   29.74
   6  18  -6  498.31   35.38
  -6  18   6  480.99   31.85
   6  18  -6  514.79   30.83
   6 -18  -6  472.79   38.08
  -6  18   6  483.20   31.24
   6 -18  -6  528.68   36.86
  -6  18   6  498.86   31.79
  -6 -18   6  602.43   39.52
  -6 -18   4  664.08   42.22
   6  18  -4  563.96   36.96
  -6  18   4  582.88   32.22
  -6  18   4  673.84   37.59
  -6  18   4  603.32   36.70
   6 -18  -4  615.13   44.35
  -6  18   4  570.68   35.70
  -6 -18   2  603.95   41.32
   6  18  -2  545.86   36.36
   6 -18  -2  513.77   42.48
  -6  18   2  556.36   37.43
  -6  18   2  556.23   34.04
  -6  18   2  573.94   37.22
  -6  18   0  296.63   24.55
  -6 -19  13    9.94    8.43
   6 -19 -11   26.89   10.71
  -6 -19  11   18.26    8.53
  -6 -19  11   29.20   11.15
  -6 -19  11   -2.73    7.88
  -6 -19   9   69.60   15.30
   6 -19  -9   84.50   15.92
  -6 -19   9   82.92   16.24
   6  19  -9   85.96   16.73
  -6  19   9   58.93   12.93
  -6  19   9  106.28   16.34
  -6 -19   9   69.55   14.25
   6  19  -7   22.61   12.63
  -6  19   7   11.76    8.65
  -6  19   7   12.78    7.97
  -6 -19   7   38.58   13.15
   6 -19  -7   22.49    9.71
  -6  19   7   33.78   11.16
  -6 -19   7   25.85   11.03
  -6 -19   5    1.73    8.93
  -6  19   5   -3.30    6.97
   6 -19  -5    4.62    6.93
  -6 -19   5   -2.56    8.40
  -6  19   5   11.07    9.60
   6 -19  -5   10.31   11.23
   6  19  -5   -8.60    9.29
  -6  19   5    7.71    7.37
  -6  19   3   16.50    9.40
  -6  19   3   16.50    9.01
  -6  19   3   40.26   12.17
   6  19  -3    3.96    8.64
  -6  19   1    1.50    6.83
  -6 -20  10  580.29   40.34
   6 -20 -10  581.63   40.22
  -6 -20  10  574.39   39.65
  -6  20   8  521.67   35.12
   6 -20  -8  585.73   40.41
  -6 -20   8  573.60   40.17
  -6  20   6  553.36   34.85
   6 -20  -6  510.18   38.58
  -6  20   6  508.52   34.15
  -6  20   4  723.73   38.90
  -6  21   5   50.42   11.66
   7   0 -19   -0.86    8.06
  -7   0  19    8.97    8.46
   7   0 -17   20.34   10.00
   7   0 -17    1.53    6.42
  -7   0  17    3.33    6.71
   7   0 -15    9.64    8.81
  -7   0  15   -0.66    5.31
   7   0 -15    0.45    5.54
  -7   0  15    5.33    6.31
   7   0 -13    0.59    4.58
   7   0 -13   -0.56    2.30
   7   0 -13   -1.51    4.87
   7   0 -13   -2.96    4.65
  -7   0  13    5.27    5.61
   7   0 -11    0.46    1.01
   7   0 -11    1.61    3.52
   7   0 -11    0.88    4.57
   7   0 -11   -2.02    4.12
  -7   0  11    3.11    5.96
   7   0 -11   -1.50    4.49
   7   0  -9   -1.89    4.10
  -7   0   9    2.69    5.20
  -7   0   9    5.73    2.50
   7   0  -9    7.30    5.27
   7   0  -7   -2.08    4.49
   7   0  -7   -1.80    1.77
  -7   0   7    2.31    6.17
   7   0  -7    7.75    5.88
  -7   0   5    0.25    2.39
  -7   0   5    0.80    4.25
   7   0  -5    1.18    2.78
  -7   0   3    1.12    1.75
  -7   0   3   -0.64    4.32
  -7   0   3    6.02    4.37
   7   0  -3    6.21    5.29
  -7   0   1    2.28    5.39
  -7   0   1   -4.71    4.91
   7   0  -1   13.30    8.33
  -7   0  -1   -2.26    6.41
  -7   0  -1    4.90    5.73
   7   0   1   -0.57    5.79
  -7   0  -1   -0.50    5.88
  -7   0  -3   -4.37    6.89
   7   0   3    5.61    7.59
  -7   0  -3    0.44    5.34
  -7   0  -3    2.96    6.61
   7   1 -18  834.64   48.71
   7  -1 -18  745.89   46.35
   7   1 -18  815.26   45.20
   7  -1 -18  876.47   46.72
  -7  -1  18  833.00   45.51
  -7   1  18  853.54   45.09
   7   1 -16  748.75   41.41
   7  -1 -16  801.25   42.93
  -7   1  16  684.18   36.96
  -7  -1  16  771.05   39.67
   7   1 -16  744.62   39.15
   7  -1 -16  745.86   39.19
  -7   1  16  729.04   36.83
  -7  -1  16  791.23   37.82
  -7  -1  14  619.59   21.70
   7   1 -14  676.17   34.72
   7  -1 -14  716.36   36.42
  -7   1  14  678.14   32.82
   7  -1 -14  644.30   31.75
   7   1 -14  668.12   33.10
  -7   1  14  647.58   33.89
  -7  -1  14  657.10   34.81
   7   1 -14  714.33   35.07
   7  -1 -14  687.67   34.37
   7   1 -12 1857.80   55.67
   7  -1 -12 1908.71   54.50
  -7  -1  12 1787.15   61.25
  -7   1  12 1794.37   60.36
   7   1 -12 1873.21   57.07
   7  -1 -12 1815.14   56.38
   7   1 -12 1783.69   47.68
   7   1 -12 1774.74   55.21
   7  -1 -12 1736.46   48.14
   7  -1 -12 1759.40   56.49
   7  -1 -10 1304.46   44.58
   7   1 -10 1303.43   44.56
   7   1 -10 1275.26   40.57
   7  -1 -10 1338.08   42.12
   7   1 -10 1337.57   43.54
   7   1 -10 1312.11   32.59
  -7  -1  10 1382.25   33.72
  -7   1  10 1459.55   37.81
  -7  -1  10 1322.28   50.82
  -7   1  10 1254.70   48.58
  -7   1   8  819.52   37.22
  -7  -1   8  902.80   39.52
   7   1  -8  876.12   33.32
   7  -1  -8  840.91   31.73
  -7   1   8  894.85   26.18
   7  -1  -8  862.98   34.26
   7   1  -8  859.15   34.27
  -7  -1   6 1723.45   50.37
   7   1  -6 1892.13   54.60
   7  -1  -6 1905.89   53.31
   7  -1  -6 1913.65   46.28
   7   1  -6 2037.26   42.59
  -7   1   6 1905.65   59.39
  -7  -1   6 1968.76   60.80
  -7  -1   4  962.27   28.22
   7   1  -4 1007.89   38.81
   7  -1  -4 1040.37   39.16
  -7   1   4  951.90   27.82
  -7  -1   4 1048.84   38.48
  -7   1   4 1068.81   38.96
  -7   1   4 1013.74   39.08
  -7  -1   4 1081.18   40.68
   7   1  -4  979.07   31.22
  -7  -1   2 1107.85   26.81
  -7  -1   2 1200.19   44.66
  -7   1   2 1164.76   43.94
  -7   1   2 1229.36   41.60
  -7  -1   2 1143.75   42.08
   7   1  -2 1195.73   44.97
   7  -1  -2 1132.41   43.91
   7   1   0 2211.09   71.51
   7  -1   0 2233.75   71.38
  -7  -1   0 2231.50   71.01
  -7   1   0 2292.63   71.76
  -7   1   0 2188.99   69.21
  -7   1   0 2249.35   66.73
  -7  -1   0 2334.19   64.05
  -7  -1  -2  383.08   26.93
  -7   1  -2  419.70   27.74
  -7  -1  -2  427.50   26.08
  -7   1  -2  399.68   26.22
  -7  -1  -2  450.54   31.59
  -7   1  -2  444.44   31.13
   7   1   2  403.05   30.36
   7  -1   2  401.16   30.20
  -7  -1  -4  673.18   39.03
  -7   1  -4  574.49   34.31
   7   2 -19  130.75   21.80
  -7   2  19  111.58   17.55
  -7  -2  19  107.32   17.84
   7   2 -17   10.40    8.06
   7  -2 -17   19.36    9.30
  -7  -2  17   22.35    8.34
   7   2 -17    2.11    6.14
   7  -2 -17    6.85    6.51
  -7   2  17   16.37    8.30
  -7  -2  17   15.16    9.34
   7   2 -15    7.18    6.71
   7  -2 -15   -0.80    6.58
  -7   2  15    5.13    6.67
  -7  -2  15    1.92    5.20
  -7   2  15    5.20    6.10
  -7  -2  15    3.16    5.69
   7   2 -15   -0.94    5.42
   7  -2 -15    3.33    6.33
   7  -2 -13   45.71    8.52
   7   2 -13   36.06    8.85
  -7  -2  13   45.73   10.46
  -7   2  13   39.55    9.17
   7   2 -13   31.70    8.05
   7  -2 -13   47.72    9.87
   7   2 -13   37.94    5.40
   7  -2 -13   27.03    5.07
   7   2 -13   30.02    7.91
   7  -2 -13   43.07    9.31
   7   2 -11   15.37    7.35
   7  -2 -11   16.96    6.41
   7   2 -11    5.80    4.01
   7   2 -11   12.45    4.47
   7   2 -11    9.86    2.18
   7  -2 -11    6.30    4.63
   7   2 -11   12.06    6.46
  -7   2  11    7.30    4.21
  -7  -2  11   25.07    9.52
  -7   2  11    2.13    5.30
   7   2  -9   28.78    5.54
   7  -2  -9   35.93    6.54
   7   2  -9   22.79    6.32
   7   2  -9   24.23    4.69
  -7  -2   9   30.41    2.92
  -7  -2   9   48.05   10.29
  -7   2   9   34.57    5.37
  -7   2   9   26.06    8.08
   7  -2  -9   13.22    5.44
   7   2  -9   18.55    6.26
  -7   2   7  113.07   13.31
  -7  -2   7  101.52   12.76
   7   2  -7  112.65   11.61
   7  -2  -7  113.84   11.06
   7  -2  -7  132.57   10.04
   7  -2  -7   99.70   11.39
   7   2  -7  125.96   12.87
   7   2  -5  919.69   26.51
  -7  -2   5  873.56   29.13
   7   2  -5  903.16   35.39
   7  -2  -5  947.94   31.51
  -7   2   5  855.59   35.56
  -7  -2   5  914.02   37.52
   7   2  -3   65.79    7.65
  -7   2   3   59.69    4.40
  -7  -2   3   57.15    5.79
  -7  -2   3   45.65    8.28
  -7   2   3   62.63    9.65
  -7   2   3   59.66    8.64
  -7  -2   3   50.33    8.83
   7  -2  -3   65.79    8.35
   7   2  -3   67.41   10.30
   7  -2  -3   64.12   10.33
   7   2  -1  110.01   14.27
   7  -2  -1  102.52   13.67
  -7  -2   1   91.62   12.61
  -7   2   1   91.83   12.90
  -7   2   1   92.58   12.47
  -7   2   1   88.96   12.41
  -7   2   1  107.55    9.97
  -7  -2   1  100.08   11.47
  -7  -2  -1  159.79   15.92
  -7   2  -1  112.30   14.81
  -7  -2  -1  105.92   14.77
  -7   2  -1  121.73   15.75
  -7   2  -1  125.84   14.55
  -7  -2  -1  128.36   14.08
   7   2   1  115.32   16.22
   7  -2   1  111.46   15.46
  -7  -2  -3  109.52   14.80
  -7   2  -3   95.68   14.16
  -7  -2  -3  102.22   14.92
   7   2   3   95.04   16.55
   7  -2   3   88.09   15.70
  -7   2  -3   91.16   13.25
  -7  -2  -3   82.87   14.86
  -7   2  -3   81.87   15.33
   7   3 -18 1280.38   61.63
   7  -3 -18 1323.66   62.91
   7   3 -18 1279.42   58.55
   7  -3 -18 1317.38   59.13
  -7  -3  18 1302.30   58.98
  -7   3  18 1364.22   58.12
   7   3 -16 1292.69   56.14
   7  -3 -16 1306.24   57.55
  -7  -3  16 1353.68   55.04
   7   3 -16 1430.41   55.79
   7  -3 -16 1370.44   54.88
  -7   3  16 1350.21   52.48
  -7  -3  16 1338.74   51.77
  -7   3  14 1026.53   23.47
   7   3 -14 1030.81   43.59
   7  -3 -14  951.02   44.35
  -7   3  14  987.51   39.91
   7   3 -14 1078.40   43.99
  -7   3  14 1039.37   43.98
  -7  -3  14  994.63   44.45
   7   3 -14 1070.29   43.56
   7  -3 -14 1008.04   42.57
   7  -3 -12 2644.16   66.84
   7   3 -12 2629.36   71.69
  -7  -3  12 2651.41   79.69
  -7   3  12 2520.43   74.62
   7   3 -12 2731.76   72.14
   7  -3 -12 2746.38   72.26
   7  -3 -12 2565.09   73.81
   7   3 -12 2478.02   61.61
   7   3 -12 2560.15   68.88
   7  -3 -10 2446.88   67.07
   7   3 -10 2496.15   67.75
   7   3 -10 2560.24   61.09
   7   3 -10 2562.06   55.34
   7  -3 -10 2583.73   62.68
   7   3 -10 2456.02   67.41
  -7   3  10 2623.18   62.75
  -7  -3  10 2592.03   77.10
  -7   3  10 2581.61   73.43
   7  -3  -8 2667.26   69.20
   7   3  -8 2619.93   69.06
   7   3  -8 2533.08   64.18
   7   3  -8 2811.91   70.58
   7  -3  -8 2641.62   63.86
   7   3  -8 2461.03   55.36
  -7   3   8 2794.77   63.20
   7  -3  -8 2626.78   61.75
  -7  -3   8 2657.76   75.51
  -7   3   8 2633.42   72.46
   7   3  -6 6031.94  111.25
   7   3  -6 6109.81  131.18
   7  -3  -6 6312.96  126.21
   7   3  -6 6444.91  108.74
   7  -3  -6 6274.84  123.77
  -7  -3   6 6362.80  136.35
  -7   3   6 5906.92  131.66
  -7  -3   4 1712.08   43.42
   7   3  -4 1761.66   54.31
   7  -3  -4 1741.01   53.97
  -7  -3   4 1770.50   53.33
  -7   3   4 1769.19   53.32
   7   3  -4 1743.54   41.87
  -7  -3   4 1795.66   54.82
   7  -3  -4 1677.34   52.09
  -7   3   4 1607.09   50.15
  -7  -3   2 1267.22   46.80
  -7   3   2 1301.76   46.98
  -7   3   2 1270.23   47.81
   7  -3  -2 1302.95   47.44
  -7  -3   2 1211.93   32.56
   7   3  -2 1304.50   47.69
  -7   3   2 1241.48   45.93
  -7  -3   2 1335.23   45.23
  -7   3   2 1279.09   38.96
   7  -3   0 1650.30   58.88
   7   3   0 1696.00   59.80
  -7  -3   0 1593.68   58.26
  -7   3   0 1619.89   58.33
  -7  -3   0 1714.07   51.47
  -7   3   0 1577.67   57.40
  -7   3   0 1541.27   54.89
  -7  -3   0 1637.90   52.33
  -7  -3  -2  810.82   37.70
  -7   3  -2  760.95   38.97
  -7  -3  -2  802.77   35.70
  -7   3  -2  721.63   36.80
  -7   3  -2  774.13   42.01
  -7  -3  -2  795.35   42.42
   7   3   2  756.89   41.89
   7  -3   2  753.89   41.56
  -7  -3  -4  502.85   33.13
  -7   3  -4  510.78   32.48
  -7   4  19   72.87   14.91
   7   4 -19   72.52   16.67
  -7  -4  17    8.26    7.28
  -7   4  17   14.18    8.13
  -7  -4  17    4.11    7.59
   7   4 -17   15.10    8.25
   7  -4 -17   28.02   12.56
  -7   4  17    3.30    5.05
   7   4 -17   11.50    7.60
   7  -4 -17    8.88    9.36
   7   4 -15   12.84    8.00
   7  -4 -15   10.63    8.94
  -7   4  15    7.05    6.67
  -7  -4  15   10.09    6.34
  -7  -4  15    1.06    5.42
   7   4 -15    9.23    7.23
   7  -4 -15    9.51    6.83
  -7   4  13  186.50    9.63
   7   4 -13  178.84   16.47
   7  -4 -13  154.10   17.03
  -7   4  13  165.10   14.62
   7   4 -13  158.79   16.53
   7  -4 -13  161.07   14.06
   7   4 -13  191.99   17.23
   7  -4 -13  189.64   17.22
  -7  -4  13  202.39   19.64
  -7   4  13  192.30   18.56
   7  -4 -11  222.18   14.59
   7   4 -11  218.12   17.50
  -7  -4  11  182.38   18.71
  -7   4  11  209.19   18.50
   7   4 -11  218.98   16.81
   7  -4 -11  234.25   17.52
   7   4 -11  212.12   14.94
   7   4  -9    7.08    4.06
  -7   4   9    1.31    3.10
   7  -4  -9    0.18    3.60
   7   4  -9    0.52    5.08
   7   4  -9    4.20    3.07
   7  -4  -9    9.68    5.62
   7   4  -9   -0.62    5.17
  -7  -4   9    6.49    5.22
  -7   4   9   -1.77    3.38
  -7   4   9   -3.11    4.40
   7  -4  -7  129.48   11.19
   7   4  -7   89.11   10.87
   7   4  -7  101.10    5.72
   7  -4  -7  105.72   11.95
   7   4  -7  112.74   12.11
   7  -4  -7  106.81   10.27
  -7  -4   7   99.46   12.42
  -7   4   7   84.88   11.21
   7   4  -5  103.02    6.03
   7   4  -5  101.45   12.12
  -7   4   5  102.48   11.87
   7  -4  -5  106.00   11.05
  -7  -4   5   87.04   11.14
  -7   4   5   90.06   10.67
   7   4  -3   10.42    5.48
   7  -4  -3   23.70    6.84
  -7   4   3   18.65    7.34
   7   4  -3   24.99    4.91
  -7   4   3   26.15    3.19
  -7   4   3   20.80    2.79
  -7  -4   3   16.44    3.95
  -7   4   3   14.60    6.77
  -7  -4   3   15.84    6.17
  -7   4   3   19.00    6.32
  -7  -4   3   14.04    5.70
  -7   4   3   29.83    6.12
   7  -4  -3   12.06    5.09
   7   4  -1  136.80   15.91
   7  -4  -1  102.68   13.03
  -7   4   1  104.17   13.60
  -7  -4   1  127.37   14.90
  -7   4   1  126.72   14.73
  -7   4   1  115.03    9.74
  -7   4   1  114.94   13.25
  -7   4   1  106.65    8.53
  -7  -4   1  129.70   13.31
  -7   4  -1  189.65   18.91
  -7  -4  -1  142.10   17.63
  -7   4  -1  154.05   17.92
  -7  -4  -1  156.27   14.99
  -7   4  -1  155.29   16.75
   7   4   1  188.64   19.68
   7  -4   1  133.30   17.07
  -7   4  -3   13.63    6.65
  -7  -4  -3    4.21    5.20
  -7  -4  -3   11.98    7.26
   7   4   3   11.04    8.45
   7  -4   3   14.40    7.68
  -7   4  -3    6.59    7.03
  -7  -4  -3   25.70    9.83
  -7   4  -3   10.42    8.10
  -7  -5  18  888.03   48.38
   7   5 -18  894.73   50.71
   7  -5 -18  925.40   51.87
  -7   5  18  883.32   45.23
  -7   5  18  799.51   44.68
  -7  -5  18  846.52   45.30
  -7   5  16 1276.15   49.64
  -7  -5  16 1249.82   50.30
   7   5 -16 1255.75   54.71
   7  -5 -16 1139.38   54.41
  -7  -5  16 1227.52   53.32
  -7   5  16 1234.76   46.01
   7   5 -16 1243.64   51.98
   7  -5 -16 1244.88   52.40
   7   5 -14 1983.17   64.30
   7  -5 -14 1973.73   68.46
  -7   5  14 1962.53   59.14
   7   5 -14 2022.50   65.71
   7   5 -14 2053.70   64.46
   7  -5 -14 1941.42   63.42
  -7  -5  14 2023.57   68.33
  -7   5  12 3223.51   68.13
   7  -5 -12 3368.42   64.03
   7   5 -12 3192.56   79.87
  -7   5  12 3291.07   77.16
   7  -5 -12 3272.70   76.62
   7   5 -12 3187.83   85.06
   7   5 -12 3285.71   83.50
   7  -5 -12 3180.01   82.94
  -7  -5  12 3438.69   94.88
  -7   5  12 3272.31   88.04
   7   5 -10 1690.57   44.44
  -7   5  10 1795.23   47.46
   7   5 -10 1719.79   44.12
  -7   5  10 1751.96   47.19
   7  -5 -10 1691.74   45.62
   7   5 -10 1805.52   55.05
  -7  -5  10 1702.96   60.06
  -7   5  10 1694.85   55.98
   7  -5 -10 1662.43   51.74
   7   5 -10 1771.72   52.97
   7  -5  -8 3163.97   78.56
   7   5  -8 3162.85   78.50
  -7   5   8 3128.58   75.97
   7   5  -8 3214.91   80.82
   7  -5  -8 3126.87   70.88
   7   5  -8 3115.89   59.66
   7  -5  -8 3238.94   76.81
  -7  -5   8 3146.47   84.42
  -7   5   8 3289.93   82.32
  -7   5   6 2864.85   74.55
   7   5  -6 2974.65   77.01
   7  -5  -6 3031.38   68.97
   7  -5  -6 2962.71   72.48
   7   5  -6 2840.72   52.18
  -7  -5   6 2990.57   78.25
  -7   5   6 2985.83   74.60
  -7  -5   4 2128.99   60.64
  -7   5   4 2137.68   60.36
  -7   5   4 2123.27   63.06
   7   5  -4 2124.55   44.14
   7   5  -4 2183.73   62.18
   7  -5  -4 2079.86   60.76
   7   5  -4 2111.49   63.22
  -7   5   4 2072.84   62.12
   7  -5  -4 2147.23   61.44
  -7   5   4 2053.23   56.72
  -7  -5   4 2093.32   61.87
  -7   5   4 2052.41   55.86
  -7   5   2 1812.55   59.38
   7   5  -2 1657.09   46.23
   7  -5  -2 1770.29   57.46
   7   5  -2 1753.50   57.65
   7  -5  -2 1705.39   47.31
  -7  -5   2 1821.40   56.45
  -7   5   2 1758.03   45.23
  -7   5   2 1765.25   57.54
  -7   5   2 1800.36   48.44
  -7  -5   2 1757.45   56.79
  -7   5   2 1775.42   56.94
   7  -5   0 1693.66   60.57
   7   5   0 1653.38   60.13
  -7  -5   0 1613.84   58.99
  -7   5   0 1688.68   59.76
  -7  -5   0 1740.63   50.40
  -7   5   0 1594.22   58.55
   7   5   0 1728.44   46.24
  -7   5   0 1777.70   59.77
  -7  -5   0 1726.06   55.42
  -7   5  -2  740.56   41.56
  -7  -5  -2  769.09   41.98
  -7  -5  -2  832.79   37.08
  -7   5  -2  843.95   41.84
   7   5   2  860.42   44.91
   7  -5   2  747.06   41.95
  -7   5  -2  869.52   41.52
  -7   5  -4  686.93   38.83
  -7   5  -4  642.09   37.23
  -7   6  19    6.28    8.67
   7   6 -17   71.33   14.70
   7  -6 -17   77.48   16.12
  -7   6  17   72.74   12.99
  -7  -6  17   75.85   14.91
  -7   6  17   73.77   11.37
   7  -6 -17   53.27   12.48
   7   6 -17   73.36   13.95
  -7  -6  15   -0.31    5.58
   7   6 -15    1.74    6.33
   7  -6 -15   -1.59    6.93
  -7   6  15   -2.23    4.96
  -7  -6  15    9.71    6.40
   7   6 -15   -0.33    6.35
  -7   6  15    0.97    5.19
   7  -6 -15   10.19    6.91
   7   6 -15   11.89    6.79
   7   6 -13  111.80   13.15
   7  -6 -13  126.07   14.20
   7  -6 -13  115.33    7.53
  -7   6  13  114.52    7.00
   7   6 -13  126.83   13.57
   7  -6 -13  104.27   15.10
  -7   6  13  119.23   11.91
   7   6 -13  128.63   14.74
  -7   6  13  107.71   13.01
  -7  -6  13  123.92   16.14
   7   6 -11   59.42    7.82
   7   6 -11   68.73   10.31
   7  -6 -11   59.07    8.97
   7  -6 -11   69.01    7.78
   7   6 -11   77.01   11.37
   7  -6 -11   63.11    6.70
  -7   6  11   74.50    7.70
  -7  -6  11   78.53   12.91
   7   6  -9  123.85    8.07
   7   6  -9  144.81   14.82
   7  -6  -9  121.63    9.57
  -7   6   9  113.49   11.12
  -7  -6   9  115.11   14.11
  -7   6   9  141.35   14.34
   7  -6  -9  101.12   11.02
   7   6  -9  128.93   12.95
   7  -6  -7  280.93   18.70
   7   6  -7  300.13   19.42
  -7   6   7  308.89   19.50
   7  -6  -7  290.70   18.86
  -7  -6   7  289.54   21.18
  -7   6   7  291.52   19.29
   7  -6  -7  283.19   15.72
   7   6  -7  249.49   18.86
  -7   6   5    4.04    4.67
   7   6  -5   16.54    7.44
  -7   6   5    2.84    4.91
  -7   6   5    5.34    5.30
   7  -6  -5   -2.41    5.42
  -7   6   5    3.32    4.19
  -7  -6   5    4.06    5.28
   7   6  -3  145.47   14.74
  -7   6   3  164.80   16.27
  -7  -6   3  123.73   13.48
  -7   6   3  114.34   12.67
   7  -6  -3  172.55   16.25
  -7   6   3  146.73    7.41
   7   6  -3  137.68   12.31
  -7   6   3  138.30   14.84
  -7   6   3  145.49   12.21
   7  -6  -3  148.62   13.66
  -7  -6   3  162.76   15.61
   7  -6  -3  167.72   16.14
   7   6  -1   57.07   10.65
   7  -6  -1   82.16   12.67
  -7   6   1   63.56   10.87
  -7  -6   1   62.34    7.65
  -7  -6   1   72.38   12.19
  -7   6   1   42.33    9.18
   7   6  -1   49.73    7.75
  -7   6   1   64.83    7.84
  -7   6   1   43.54    9.79
  -7  -6   1   64.80   10.60
   7   6   1    5.48    7.00
   7  -6   1   12.26    7.41
  -7  -6  -1    4.32    5.83
  -7  -6  -1   17.47    8.75
  -7   6  -1   -2.56    5.83
  -7   6  -1   15.52    6.42
  -7   6  -1    8.55    7.51
  -7  -6  -1    5.52    5.15
  -7   6  -3  103.18   16.07
   7   6   3  103.92   17.40
   7  -6   3   90.92   15.57
  -7   6  -3   78.04   13.98
  -7  -6  -3   92.75   16.32
  -7   6  -3   96.59   16.24
  -7  -7  18  576.00   39.28
   7   7 -18  573.17   40.67
   7  -7 -18  628.08   43.53
  -7   7  18  540.36   34.76
  -7   7  18  576.79   37.50
  -7  -7  18  581.86   37.21
  -7   7  16  637.05   33.25
  -7  -7  16  651.98   36.16
   7   7 -16  670.07   39.07
   7  -7 -16  657.52   40.86
  -7  -7  16  583.70   36.57
  -7   7  16  625.43   32.01
   7   7 -16  628.93   36.34
   7  -7 -16  640.97   36.60
   7   7 -14 1079.51   44.34
   7  -7 -14 1055.63   43.94
  -7  -7  14 1085.86   31.61
   7  -7 -14 1021.10   48.60
   7   7 -14  986.23   43.15
   7   7 -14 1070.12   46.50
  -7   7  14 1096.38   43.10
  -7  -7  14 1134.00   49.77
  -7   7  14 1068.07   39.44
   7   7 -12 1375.29   47.56
   7  -7 -12 1389.70   47.75
   7  -7 -12 1407.28   37.53
  -7  -7  12 1443.72   40.14
  -7   7  12 1382.99   35.84
   7   7 -12 1348.57   44.75
  -7  -7  12 1368.57   46.40
  -7   7  12 1368.30   41.01
   7   7 -12 1363.50   50.29
  -7   7  12 1335.21   39.40
  -7   7  12 1407.44   49.33
  -7  -7  12 1399.06   56.04
   7  -7 -10 1627.70   51.63
   7   7 -10 1787.93   53.19
   7   7 -10 1721.00   44.33
  -7  -7  10 1804.99   55.72
  -7   7  10 1817.20   48.03
  -7   7  10 1711.26   45.31
   7   7 -10 1763.86   56.67
   7  -7 -10 1767.55   44.30
  -7   7  10 1748.21   55.93
  -7  -7  10 1800.68   38.38
  -7  -7  10 1799.44   61.02
   7  -7  -8 1136.42   40.32
   7   7  -8 1139.69   40.39
  -7  -7   8 1191.68   44.53
  -7   7   8 1094.18   38.87
   7  -7  -8 1121.97   32.83
   7   7  -8 1165.35   43.44
  -7   7   8 1184.08   40.61
  -7   7   8 1151.73   42.77
   7  -7  -8 1192.11   42.59
  -7  -7   8 1129.93   44.54
  -7   7   6 1236.40   42.98
   7  -7  -6 1168.56   41.66
   7   7  -6 1175.98   41.89
   7   7  -6 1144.30   44.17
   7  -7  -6 1173.28   35.78
  -7   7   6 1157.59   42.28
   7  -7  -6 1201.89   43.51
  -7   7   6 1212.59   42.02
   7   7  -6 1199.63   26.48
  -7  -7   6 1233.57   45.83
  -7   7   4 1649.59   54.96
   7   7  -4 1697.19   53.39
   7  -7  -4 1615.51   52.23
  -7   7   4 1620.11   39.89
   7   7  -4 1643.35   50.26
  -7  -7   4 1605.71   51.15
  -7   7   4 1647.69   51.12
   7   7  -4 1699.82   56.40
  -7   7   4 1641.81   54.14
  -7   7   4 1573.67   48.92
   7  -7  -4 1673.28   55.80
  -7  -7   4 1658.90   55.08
  -7   7   2 1983.74   63.94
   7   7  -2 1988.87   63.00
   7  -7  -2 1920.80   61.79
   7   7  -2 1989.24   55.68
  -7  -7   2 1824.52   59.31
  -7   7   2 1954.78   60.51
  -7   7   2 1923.80   53.05
   7  -7  -2 1951.45   66.00
  -7   7   2 1984.72   63.42
  -7  -7   2 2002.44   62.50
   7   7   0  268.09   22.96
   7  -7   0  290.18   23.48
  -7  -7   0  313.37   24.04
  -7   7   0  315.40   24.02
  -7   7   0  279.30   23.37
   7   7   0  283.29   18.20
  -7   7   0  276.61   22.44
  -7  -7   0  299.96   22.38
  -7   7  -2  464.61   32.33
  -7  -7  -2  445.49   31.89
  -7   7  -2  489.17   31.81
   7   7   2  547.35   35.59
   7  -7   2  454.78   32.24
  -7   7  -2  438.84   30.21
  -7   7  -4  482.34   33.36
  -7   7  -4  469.17   32.81
   7   8 -17  -14.56    8.75
   7  -8 -17   27.22   11.66
  -7   8  17   23.52    7.80
  -7  -8  17    8.87    8.90
  -7   8  17    3.35    4.92
   7   8 -17    5.50    8.48
   7  -8 -17   -3.04    7.55
  -7  -8  15   47.34   11.51
  -7  -8  15   22.24    5.80
   7   8 -15   16.23    7.91
   7  -8 -15   14.95    8.63
  -7   8  15   32.21    7.62
   7   8 -15   34.63   11.44
  -7   8  15   38.31    9.14
   7   8 -15   26.80    8.94
   7  -8 -15   16.95    7.82
   7   8 -13   12.37    6.88
   7  -8 -13   18.10    7.35
  -7   8  13   16.38    3.32
  -7  -8  13   20.79    5.46
   7  -8 -13   20.81    4.86
  -7  -8  13   18.85    6.08
   7   8 -13    6.06    5.30
  -7   8  13   21.66    5.85
   7   8 -13   13.33    7.02
  -7   8  13   21.97    4.33
  -7   8  13    2.42    5.62
  -7  -8  13    2.27    7.51
   7   8 -11   69.85   10.44
   7  -8 -11   57.77    9.75
  -7   8  11   69.43    7.68
  -7  -8  11   58.24    8.11
   7  -8 -11   54.40    7.27
   7   8 -11   65.54    8.30
  -7  -8  11   65.25    9.62
  -7  -8  11   55.30    7.04
  -7   8  11   74.49    7.40
   7   8 -11   71.62   11.71
  -7   8  11   63.45    7.55
  -7   8  11   77.36   11.02
  -7   8  11   64.80    8.25
  -7  -8  11   58.12   11.06
  -7  -8  11   72.21    7.53
   7   8  -9  136.85    8.14
  -7   8   9  139.85   12.35
  -7  -8   9  146.53   14.90
   7  -8  -9  132.27   12.91
   7   8  -9  120.82   12.25
   7  -8  -9  134.15    9.14
   7   8  -9  159.24   15.86
  -7   8   9  135.28   14.40
  -7   8   9  156.25   13.53
  -7  -8   9  144.99   15.67
   7   8  -7  162.56   14.49
   7  -8  -7  121.71   12.82
  -7   8   7  172.23   14.52
  -7  -8   7  125.14   14.58
   7  -8  -7  144.17   10.49
   7   8  -7  143.15   15.14
  -7   8   7  162.54   14.88
  -7   8   7  160.98   14.65
  -7  -8   7  156.76   16.20
   7  -8  -7  124.55   14.03
  -7   8   5   79.90   11.23
   7   8  -5   69.62   10.46
  -7   8   5   82.34    7.77
  -7   8   5   78.92    8.12
  -7   8   5   73.52    9.78
   7   8  -5   73.48   11.99
  -7   8   5   94.93   11.22
   7   8  -5   74.46    7.07
  -7   8   5   86.90   12.21
  -7  -8   5   75.04   11.36
   7  -8  -5   96.83   12.33
   7   8  -3   14.40    6.57
   7  -8  -3   20.68    7.30
  -7   8   3   10.72    6.66
   7   8  -3    2.27    4.86
  -7   8   3    9.34    2.64
  -7   8   3    6.91    4.42
  -7  -8   3   19.99    6.77
   7   8  -3   11.73    7.19
  -7   8   3   17.10    5.72
  -7   8   3    5.37    5.28
  -7  -8   3   13.79    6.72
   7  -8  -3   17.27    7.18
  -7   8   1  233.88   21.10
   7  -8  -1  236.92   20.17
   7   8  -1  250.77   21.07
   7   8  -1  247.59   17.92
  -7   8   1  266.34   16.42
  -7   8   1  267.32   22.28
  -7  -8   1  236.33   19.94
  -7   8   1  236.87   19.55
  -7  -8   1  232.51   19.96
   7   8   1    5.37    6.68
   7  -8   1   16.60    8.42
  -7  -8  -1    8.71    6.41
  -7   8  -1   18.12    9.24
  -7   8  -1   12.61    7.62
  -7   8  -1   15.66    7.14
  -7  -8  -1    9.37    6.11
  -7  -8  -3   26.59   11.56
  -7   8  -3   27.72   10.43
  -7   8  -3   17.41    7.42
   7   8   3   10.81    8.95
   7  -8   3   25.89   10.30
  -7   8  -3   25.01    9.92
  -7   9  18  430.09   32.12
  -7  -9  18  387.81   30.37
   7   9 -18  464.62   36.75
   7   9 -16  843.85   44.65
   7  -9 -16  829.92   47.95
  -7  -9  16  820.14   44.45
  -7   9  16  756.45   36.54
  -7  -9  16  822.98   41.83
   7   9 -16  767.18   40.12
   7  -9 -16  790.68   41.11
   7   9 -14 1026.07   43.07
   7  -9 -14 1081.71   44.10
   7  -9 -14 1028.74   50.36
   7   9 -14  976.19   43.09
  -7  -9  14 1038.11   40.60
  -7  -9  14 1053.65   35.11
   7   9 -14 1066.51   47.43
  -7   9  14  984.68   41.94
  -7  -9  14 1107.54   50.83
  -7   9  14  995.75   36.74
   7   9 -12  532.16   27.79
   7  -9 -12  556.28   28.57
   7  -9 -12  523.59   23.50
  -7   9  12  546.20   20.68
  -7  -9  12  551.46   25.09
  -7  -9  12  563.14   29.29
   7   9 -12  528.26   26.34
   7   9 -12  523.89   30.41
  -7   9  12  545.71   29.77
  -7   9  12  533.07   22.21
  -7  -9  12  504.88   24.19
  -7   9  12  548.83   21.77
  -7  -9  12  557.34   33.75
   7  -9 -10  654.58   29.30
   7   9 -10  705.73   30.36
  -7  -9  10  676.91   29.87
  -7   9  10  629.22   26.36
   7   9 -10  644.44   23.85
  -7  -9  10  700.96   33.47
  -7  -9  10  677.59   22.96
  -7   9  10  669.68   20.45
   7   9 -10  710.02   34.33
   7  -9 -10  680.87   21.52
  -7  -9  10  692.03   21.74
  -7   9  10  690.42   28.45
  -7   9  10  694.49   33.08
  -7  -9  10  648.51   34.96
   7   9  -8 1167.57   40.98
   7  -9  -8 1179.48   41.22
  -7   9   8 1189.08   40.94
  -7  -9   8 1200.97   46.81
   7  -9  -8 1186.48   31.21
   7   9  -8 1111.67   44.31
  -7   9   8 1143.27   41.36
  -7   9   8 1235.05   44.44
   7  -9  -8 1271.62   48.02
  -7  -9   8 1222.14   47.71
   7  -9  -6  508.53   25.99
   7   9  -6  456.59   24.81
  -7   9   6  515.27   26.89
  -7  -9   6  494.68   29.73
  -7   9   6  459.96   22.47
   7   9  -6  460.08   26.57
   7   9  -6  428.26   26.70
   7  -9  -6  511.64   20.61
  -7   9   6  481.79   26.48
   7  -9  -6  477.25   28.38
   7   9  -6  483.26   16.87
  -7   9   6  494.58   26.24
  -7  -9   6  519.10   29.54
  -7   9   6  471.25   17.37
  -7   9   4  759.04   35.72
  -7   9   4  763.72   25.48
   7   9  -4  766.80   33.83
  -7  -9   4  791.36   33.23
  -7   9   4  735.22   31.76
   7   9  -4  844.86   38.49
   7  -9  -4  772.06   38.07
  -7   9   4  760.45   36.00
  -7   9   4  747.20   31.89
  -7  -9   4  793.97   37.67
   7   9  -2  543.29   27.52
   7   9  -2  532.84   29.96
   7  -9  -2  481.74   28.39
  -7   9   2  507.25   30.26
  -7   9   2  551.73   25.57
   7   9  -2  488.57   30.90
   7  -9  -2  483.93   32.25
  -7   9   2  519.29   30.71
  -7  -9   2  552.29   29.00
  -7   9   2  497.19   27.47
   7   9   0  787.55   33.85
   7  -9   0  788.90   39.57
   7   9   0  746.62   38.64
  -7   9   0  724.21   38.76
  -7   9   0  700.48   38.28
  -7  -9   0  760.01   38.08
  -7   9   0  755.10   37.79
  -7   9  -2  953.57   46.64
   7   9   2  931.26   47.70
   7  -9   2  944.47   47.51
  -7   9  -2  857.29   44.83
  -7  -9  -2  831.58   44.44
  -7   9  -2  887.62   45.56
  -7  10  17    2.35    7.64
  -7 -10  17   20.94    9.96
   7  10 -17   13.24    9.39
   7 -10 -17   34.08   13.15
  -7  10  17   21.87    9.55
  -7 -10  17   29.27    9.84
   7  10 -15   96.56   14.66
  -7 -10  15  106.51   12.73
   7 -10 -15  114.45   17.82
   7  10 -15   92.56   13.37
   7 -10 -15   71.75   12.56
  -7  10  15   91.30   12.88
  -7 -10  15   84.95   14.25
   7  10 -13  312.74   21.95
   7 -10 -13  267.90   20.50
  -7 -10  13  346.24   23.21
  -7 -10  13  315.31   19.13
   7 -10 -13  275.34   17.63
   7  10 -13  341.27   22.77
   7  10 -13  337.84   25.31
  -7  10  13  279.80   21.60
  -7 -10  13  316.42   26.08
   7  10 -11   68.65   10.05
   7 -10 -11   62.69    9.98
  -7  10  11   57.14    7.51
  -7 -10  11   78.95   10.13
   7 -10 -11   68.12    9.33
   7  10 -11   55.56    7.90
  -7 -10  11   76.75   11.91
   7  10 -11   68.18   11.52
  -7  10  11   55.27   10.13
  -7  10  11   56.36    7.68
  -7  10  11   70.53    6.02
  -7 -10  11   63.63    7.52
  -7 -10  11   50.53   11.11
   7 -10  -9    1.34    4.09
   7  10  -9    8.39    5.15
  -7  10   9   13.94    5.01
  -7 -10   9    8.68    6.03
  -7 -10   9    8.13    6.57
  -7  10   9    6.02    4.91
  -7  10   9    5.14    1.42
   7 -10  -9    6.75    2.28
   7  10  -9   -0.66    5.65
  -7  10   9    9.61    4.36
  -7  10   9   11.91    6.79
  -7 -10   9    9.75    6.83
   7 -10  -7  102.68   11.30
   7  10  -7   92.13   11.19
  -7  10   7   72.49   10.21
  -7 -10   7   96.33   13.35
   7  10  -7  102.59   13.09
  -7  10   7   94.88   10.58
   7  10  -7   89.81   12.56
   7 -10  -7   93.53    7.39
  -7  10   7   80.14   11.20
  -7  10   7  104.71   12.57
  -7 -10   7  123.80   14.88
  -7  10   7   92.50    5.43
   7 -10  -7  103.43   13.39
  -7 -10   5   31.74    7.16
  -7  10   5   29.99    6.06
  -7  10   5   26.34    7.58
  -7 -10   5   27.72    8.90
   7  10  -5   23.14    6.56
  -7  10   5   39.70    6.51
   7  10  -5   26.62    8.35
  -7  10   5   39.72    8.82
  -7  10   5   41.94    9.20
  -7 -10   5   50.41   10.54
   7 -10  -5   29.36    9.28
   7  10  -3   12.08    6.71
   7 -10  -3   13.00    6.42
  -7  10   3   -8.78    7.68
   7  10  -3   15.18    6.04
  -7  10   3    6.21    3.44
  -7 -10   3    7.09    6.22
  -7  10   3   12.11    5.73
   7  10  -3    0.20    5.49
  -7  10   3    0.81    6.20
  -7  10   3    7.71    4.94
   7 -10  -3    7.11    6.51
   7  10  -1    7.11    6.85
   7 -10  -1    8.60    6.51
  -7 -10   1    1.20    4.84
  -7  10   1   11.66    6.64
  -7  10   1   -5.12    7.50
   7  10  -1    5.70    5.39
  -7  10   1    7.53    6.20
  -7  10   1    7.59    5.16
   7 -10  -1   -1.50    7.70
   7  10   1  138.30   17.87
   7 -10   1   78.67   13.56
  -7 -10  -1   93.86   14.29
  -7  10  -1   90.81   14.34
  -7  10  -1   88.10   14.15
  -7  10  -1   84.61   14.71
   7 -10   1   90.06   17.85
  -7 -10  -3    4.76    8.01
  -7  10  -3    8.93    8.62
   7  10   3   18.97   10.10
   7 -10   3   -1.92    7.98
  -7  11  18  418.39   31.76
  -7 -11  18  366.88   29.65
   7  11 -18  431.49   36.18
   7 -11 -16  897.25   51.28
  -7 -11  16  832.56   45.61
  -7  11  16  798.23   46.13
  -7  11  16  794.41   38.56
   7  11 -16  765.74   40.75
   7 -11 -16  847.15   42.33
   7  11 -16  841.36   46.04
   7  11 -14 1114.97   47.90
  -7 -11  14 1196.53   46.89
  -7  11  14 1218.21   53.11
   7  11 -14 1259.09   53.48
  -7  11  14 1165.79   47.47
  -7 -11  14 1210.67   54.81
   7  11 -14 1116.35   45.54
   7 -11 -14 1183.83   46.83
   7  11 -12  404.10   23.88
   7 -11 -12  420.55   24.21
   7 -11 -12  357.53   21.47
  -7  11  12  374.42   18.13
   7  11 -12  379.50   22.64
  -7 -11  12  392.31   23.03
  -7 -11  12  389.86   25.70
  -7  11  12  402.06   27.36
   7  11 -12  418.48   27.72
  -7 -11  12  412.59   22.39
  -7  11  12  418.26   26.62
  -7  11  12  385.25   19.06
  -7 -11  12  369.38   28.33
   7  11 -10 2184.50   60.67
   7 -11 -10 2166.64   60.53
   7 -11 -10 2186.64   63.45
  -7  11  10 2100.08   58.24
  -7 -11  10 2302.20   66.29
  -7 -11  10 2147.48   69.04
  -7  11  10 2274.89   68.82
   7  11 -10 2275.94   69.59
  -7  11  10 2228.10   60.48
  -7  11  10 2230.60   67.93
  -7 -11  10 2296.44   53.44
  -7 -11  10 2288.13   73.28
   7 -11  -8 2595.52   67.89
   7  11  -8 2595.31   67.60
  -7  11   8 2547.81   70.09
  -7 -11   8 2708.64   79.18
  -7  11   8 2598.36   71.50
   7 -11  -8 2666.79   49.40
   7  11  -8 2475.30   74.81
  -7  11   8 2633.09   71.72
  -7  11   8 2563.29   73.93
   7 -11  -8 2678.19   81.16
  -7 -11   8 2778.39   80.93
   7  11  -6 1188.63   41.55
   7 -11  -6 1122.69   41.10
  -7  11   6 1105.50   43.51
  -7 -11   6 1103.53   48.19
  -7  11   6 1194.58   39.54
   7  11  -6 1136.15   46.27
   7 -11  -6 1173.68   32.34
  -7  11   6 1191.46   44.28
   7  11  -6 1168.23   46.90
   7 -11  -6 1162.96   49.18
  -7  11   6 1097.89   44.26
  -7 -11   6 1291.50   50.87
  -7  11   4 1907.06   62.46
  -7 -11   4 1821.81   66.72
   7  11  -4 1873.13   63.79
  -7  11   4 1873.32   57.41
  -7  11   4 1863.51   48.99
   7  11  -4 1833.71   60.09
  -7  11   4 1845.55   62.35
   7 -11  -4 1994.11   69.08
  -7 -11   4 1778.82   54.69
  -7  11   4 1765.41   53.83
  -7  11   2 1141.34   49.13
   7  11  -2 1169.38   51.00
  -7  11   2 1130.52   41.80
  -7  11   2 1156.09   49.73
   7 -11  -2 1261.42   56.48
  -7 -11   2 1185.95   44.73
  -7  11   2 1181.63   44.27
   7  11  -2 1194.29   45.88
   7  11  -2 1202.00   47.44
   7 -11  -2 1149.21   45.77
  -7 -11   0  366.92   26.21
  -7  11   0  411.52   27.30
   7 -11   0  359.66   31.73
  -7  11   0  398.01   29.22
  -7  11   0  401.62   29.27
   7  11   0  360.35   24.26
   7  11   0  377.90   27.90
   7 -11   0  389.08   27.11
  -7 -11  -2  872.62   45.18
  -7  11  -2  899.37   45.66
   7 -11   2  814.85   44.54
   7  11   2  864.41   46.21
  -7  11  -2  842.99   46.10
  -7  11  -2  801.17   44.49
  -7  12  17   10.08    8.06
  -7 -12  17    9.27    7.22
   7  12 -17   10.03    9.19
  -7 -12  15   12.16    8.56
   7  12 -15   15.67    9.35
   7 -12 -15   38.13   12.72
  -7 -12  15    4.42    7.42
  -7  12  15   11.97    7.64
  -7  12  15    8.86    6.48
   7 -12 -15   -2.72    6.88
   7  12 -15    9.44    7.36
   7  12 -13    9.74    5.90
   7 -12 -13   21.77    7.89
   7 -12 -13   33.13    7.63
  -7 -12  13   -2.88    5.02
   7  12 -13   12.70    6.24
  -7 -12  13   10.01    5.43
  -7  12  13   10.68    8.53
   7  12 -13   22.30    7.94
  -7  12  13    1.76    6.01
  -7 -12  13   11.99    7.41
  -7 -12  13    8.14    5.22
   7 -12 -11    9.25    5.83
   7  12 -11    3.93    4.18
  -7  12  11   -2.06    3.46
   7 -12 -11   -0.34    4.81
  -7 -12  11   12.05    7.37
  -7 -12  11    9.35    7.84
  -7  12  11    1.98    6.11
   7  12 -11   14.33    7.23
  -7  12  11    3.54    7.55
  -7  12  11    1.10    3.72
  -7 -12  11   -4.54    4.36
  -7 -12  11    2.79    8.53
   7 -12  -9   22.60    6.42
   7  12  -9    8.95    4.65
  -7  12   9   23.57    7.54
  -7 -12   9   23.24    8.87
  -7 -12   9   31.05    9.74
  -7  12   9   14.97    7.48
   7  12  -9   13.36    7.20
  -7  12   9   11.64    6.70
  -7  12   9    9.07    4.54
  -7 -12   9   22.36    8.26
   7 -12  -7    3.97    4.38
   7  12  -7    3.89    4.75
  -7  12   7    7.72    5.20
  -7 -12   7    8.58    7.08
   7  12  -7   16.16    7.56
  -7  12   7   23.94    7.14
   7  12  -7   20.82    8.06
  -7  12   7   18.14    7.94
  -7  12   7   18.65    7.18
  -7 -12   7   14.18    7.85
   7 -12  -7   -2.00    7.84
  -7 -12   5   24.30    6.27
  -7  12   5   19.67    5.80
   7 -12  -5   54.77    9.35
   7  12  -5   32.66    7.56
  -7  12   5   30.64    8.03
  -7 -12   5   37.46   10.73
   7  12  -5   17.67    7.87
  -7  12   5   38.52    7.43
   7 -12  -5   35.43    5.62
   7  12  -5   27.80    7.80
  -7  12   5   31.24    9.33
  -7  12   5   30.46    7.88
   7 -12  -5   23.23    8.78
  -7  12   3   27.26    9.00
   7  12  -3   14.57    6.57
  -7 -12   3   21.63    6.85
  -7  12   3   29.29    7.22
   7  12  -3   21.84    9.59
  -7  12   3   19.52    7.90
  -7  12   3   20.51    6.72
   7 -12  -3   34.45   10.52
   7  12  -1    1.06    6.55
   7 -12  -1   -3.90    5.86
  -7  12   1   12.42    8.20
   7  12  -1    3.07    5.91
   7  12  -1   -2.27    6.44
  -7  12   1   -6.74    7.47
  -7  12   1   -3.53    5.10
  -7 -12   1   14.15    7.23
  -7  12   1   -5.02    5.30
   7 -12  -1   14.69    8.67
   7  12   1   11.90    7.57
   7 -12   1    5.15    7.68
  -7 -12  -1   10.89    7.93
  -7  12  -1    2.54    5.40
  -7  12  -1   14.76    9.72
   7 -12   1    2.84   11.32
  -7  12  -1   -7.72    7.99
   7 -12   3    6.35    8.42
  -7 -13  16  562.79   38.09
  -7  13  16  539.43   32.76
  -7 -13  16  507.15   31.69
   7  13 -16  503.95   36.06
  -7 -13  14 1231.90   50.81
  -7  13  14 1308.02   56.70
   7  13 -14 1304.23   55.79
  -7  13  14 1180.05   49.90
   7  13 -14 1230.03   48.01
   7 -13 -14 1210.26   47.40
  -7 -13  14 1178.58   55.85
   7 -13 -12  872.30   38.17
  -7 -13  12  886.40   39.04
  -7 -13  12  873.91   42.17
  -7  13  12  872.86   43.31
  -7  13  12  881.56   41.56
   7  13 -12  876.81   42.46
  -7 -13  12  878.23   45.22
   7  13 -12  857.80   35.62
   7 -13 -12  910.59   36.45
   7  13 -10 1849.96   53.42
   7 -13 -10 1861.11   53.58
   7 -13 -10 1840.35   60.53
  -7  13  10 1817.15   54.35
  -7 -13  10 1792.53   61.24
  -7 -13  10 1854.09   65.42
  -7  13  10 1906.00   63.51
   7  13 -10 1814.80   62.86
  -7  13  10 1832.08   62.48
  -7  13  10 1779.09   54.54
  -7 -13  10 1957.56   68.78
   7 -13  -8 1485.33   45.99
   7  13  -8 1460.79   45.37
  -7 -13   8 1487.53   56.25
  -7  13   8 1476.89   50.68
  -7 -13   8 1474.97   57.96
  -7  13   8 1490.44   51.50
   7  13  -8 1550.19   58.94
  -7  13   8 1553.40   54.85
   7  13  -8 1425.13   54.06
  -7  13   8 1486.70   51.35
   7 -13  -8 1494.20   60.84
  -7 -13   8 1494.14   58.51
  -7 -13   6  516.23   24.99
  -7  13   6  484.53   23.33
  -7  13   6  478.07   28.54
  -7 -13   6  508.06   32.95
  -7  13   6  537.55   26.38
   7  13  -6  545.63   32.35
  -7  13   6  528.62   29.37
   7  13  -6  490.48   30.31
   7 -13  -6  529.20   34.50
  -7  13   6  478.12   28.96
   7 -13  -6  471.44   24.90
   7  13  -6  526.88   26.08
  -7  13   4 1672.68   60.21
  -7 -13   4 1630.27   65.22
   7  13  -4 1461.31   58.27
  -7  13   4 1653.04   55.81
   7  13  -4 1673.75   59.71
  -7  13   4 1603.01   47.69
  -7  13   4 1663.37   60.27
   7 -13  -4 1658.63   66.32
  -7 -13   4 1706.70   51.37
  -7  13   4 1686.86   50.50
  -7  13   2 1479.82   58.95
   7  13  -2 1497.18   59.19
  -7  13   2 1406.92   49.81
   7  13  -2 1416.20   54.30
   7 -13  -2 1469.05   64.65
  -7  13   2 1391.12   57.57
  -7 -13   2 1435.38   49.90
  -7  13   2 1351.19   48.36
  -7  13   0  646.45   39.13
   7  13   0  600.74   34.28
   7  13   0  626.86   36.25
   7 -13   0  640.22   35.97
   7  13   0  716.65   42.50
  -7  13   0  634.35   39.42
   7 -13   0  671.06   45.22
  -7 -13   0  562.62   32.93
  -7  13   0  672.33   35.14
  -7  14  15   12.98   10.11
  -7 -14  15   12.21    8.51
  -7  14  15   21.41    9.00
   7 -14 -15   -0.99    9.47
  -7 -14  13   41.05    8.45
  -7 -14  13   52.95   11.83
  -7  14  13   60.99   12.98
   7  14 -13   41.72   11.54
  -7  14  13   21.79    8.30
  -7 -14  13   18.21    8.77
   7 -14 -11    1.54    4.49
  -7  14  11   -0.25    4.24
   7 -14 -11    0.26    5.03
  -7 -14  11   -1.39    6.46
  -7 -14  11   -6.77    7.22
  -7  14  11    2.77    6.73
   7  14 -11    2.20    5.89
  -7  14  11   -3.52    4.06
  -7  14  11    5.08    5.91
  -7 -14  11   14.92    8.04
   7 -14  -9   11.28    5.54
  -7  14   9    4.91    5.06
   7 -14  -9   28.54    9.02
  -7 -14   9   18.53    8.77
  -7 -14   9   15.37    8.96
  -7  14   9    4.29    7.31
   7  14  -9   16.38    6.89
  -7  14   9    9.01    5.52
  -7  14   9   13.73    6.74
  -7 -14   9    9.90    8.40
   7 -14  -7   61.64    8.92
  -7  14   7   56.41   10.95
  -7 -14   7   60.54   12.64
   7  14  -7   55.44   11.15
  -7  14   7   63.02   10.20
   7  14  -7   70.38   12.42
  -7  14   7   66.43   10.96
  -7  14   7   64.95   11.56
  -7 -14   7   73.91   13.32
   7 -14  -7   76.30   14.32
  -7 -14   5    0.33    4.27
   7 -14  -5    7.52    4.92
  -7  14   5    1.05    5.73
  -7 -14   5   16.90    8.60
   7  14  -5    9.71    7.55
  -7  14   5   -1.46    5.21
   7  14  -5   -1.24    6.02
  -7  14   5    6.94    7.59
  -7  14   5    9.23    6.34
   7 -14  -5   11.33    9.55
  -7 -14   3   41.24    8.52
  -7  14   3   66.41   12.80
  -7 -14   3   57.70   13.28
   7  14  -3   48.88   11.79
   7  14  -3   37.60   10.87
  -7  14   3   63.51   13.52
  -7  14   3   54.86    9.62
   7 -14  -3   14.62    9.54
  -7  14   1   11.33    8.88
   7  14  -1    5.89    6.58
   7  14  -1    2.96    7.88
   7 -14  -1    0.28    8.20
  -7  14   1   15.99    9.09
  -7  14   1    0.66    5.37
   7  14   1   57.46   14.19
  -7  15  16  389.46   29.34
  -7  15  14  631.93   36.70
   7  15 -14  625.47   39.15
  -7  15  14  598.20   39.02
  -7 -15  14  600.81   39.78
  -7 -15  14  542.69   35.19
  -7 -15  12  313.29   26.10
  -7  15  12  336.69   27.34
  -7  15  12  351.15   26.86
   7  15 -12  343.81   26.98
   7 -15 -12  344.41   25.57
  -7 -15  12  362.13   26.38
  -7 -15  12  359.10   29.44
   7 -15 -10  426.76   28.70
  -7  15  10  420.16   25.02
  -7 -15  10  482.10   30.98
  -7 -15  10  476.08   32.41
  -7  15  10  415.52   28.45
   7  15 -10  434.50   28.92
  -7  15  10  432.66   29.30
  -7  15  10  432.46   25.02
  -7 -15  10  455.54   32.59
  -7  15   8  547.43   30.79
  -7 -15   8  607.83   36.36
  -7 -15   8  580.29   36.30
  -7  15   8  542.21   31.06
   7  15  -8  527.84   35.60
  -7  15   8  599.50   33.72
   7  15  -8  534.77   31.79
  -7  15   8  560.36   30.69
  -7 -15   8  585.40   36.84
  -7 -15   6  537.66   35.52
  -7  15   6  538.55   28.31
   7  15  -6  466.84   31.80
  -7  15   6  453.71   29.25
   7  15  -6  468.80   30.37
  -7  15   6  461.83   29.83
   7 -15  -6  430.33   33.69
  -7  15   6  481.04   29.92
  -7 -15   4  794.75   45.30
   7  15  -4  844.14   43.04
  -7  15   4  859.38   34.56
  -7  15   4  827.69   39.38
   7  15  -4  760.97   41.13
   7 -15  -4  819.02   48.39
  -7  15   4  782.22   41.53
  -7  15   4  820.08   41.85
  -7 -15   2  359.35   31.58
   7  15  -2  362.17   27.70
  -7  15   2  387.09   30.52
   7 -15  -2  390.76   34.34
  -7  15   2  349.95   29.07
   7  15  -2  377.48   29.78
  -7  15   2  384.38   25.68
   7  15   0  208.89   21.47
   7  15   0  215.49   23.50
  -7  16  15   10.66    7.79
  -7 -16  13   -5.00    6.81
  -7 -16  13    3.35    6.96
  -7  16  13    0.54    7.98
   7  16 -13   -1.13    6.95
  -7  16  13   -1.37    7.34
  -7 -16  13    3.59    6.45
   7 -16 -11   36.98   10.95
  -7 -16  11   40.32    9.70
  -7 -16  11   36.39   11.15
  -7  16  11   25.82    9.34
   7  16 -11   40.90   10.88
  -7  16  11   27.71    9.78
  -7 -16  11   31.76   11.16
   7 -16  -9   30.30    9.07
  -7  16   9   20.82    7.43
  -7 -16   9   21.71    9.24
  -7 -16   9    4.57    6.76
  -7  16   9   21.61    7.91
   7  16  -9   19.36    7.89
  -7  16   9   21.19    7.45
  -7  16   9   22.18    8.89
  -7 -16   9   29.99   11.47
  -7  16   7   -0.52    5.89
  -7 -16   7   28.84   10.90
   7  16  -7    6.36    6.89
  -7  16   7   12.78    6.91
   7  16  -7   13.87    8.11
  -7  16   7   -3.62    5.67
  -7  16   7    1.68    5.79
   7 -16  -7   20.52    9.11
  -7  16   5    5.52    6.08
  -7 -16   5    1.82    7.32
   7  16  -5    2.55    7.36
  -7  16   5   -1.51    5.62
   7  16  -5    4.99    5.81
  -7  16   5   -1.89    6.14
  -7  16   5   -1.40    5.64
   7 -16  -5    8.02   10.25
  -7  16   3    7.22    7.11
  -7 -16   3   -1.84    7.44
   7  16  -3   -6.11    6.89
  -7  16   3    6.96    5.93
  -7  16   3   -1.74    5.18
   7 -16  -3    6.81    8.74
   7  16  -3    3.23    7.34
   7  16  -1   15.60    9.32
   7  16  -1   11.26    7.39
  -7  16   1   10.91    6.74
  -7 -17  14  364.73   30.09
  -7 -17  12  356.49   29.95
  -7  17  12  300.73   27.28
  -7  17  12  311.36   26.46
   7  17 -12  324.95   27.53
  -7 -17  12  315.64   26.76
   7 -17 -12  342.50   27.58
  -7 -17  12  327.02   29.43
  -7 -17  10  449.25   33.53
  -7  17  10  408.75   29.75
  -7  17  10  399.46   29.80
   7  17 -10  410.17   29.42
   7 -17 -10  412.12   30.40
  -7  17  10  412.72   26.06
  -7 -17  10  384.73   29.97
  -7 -17  10  380.82   31.28
   7 -17  -8  472.84   34.07
  -7  17   8  371.15   26.71
  -7 -17   8  475.61   34.04
  -7 -17   8  469.03   34.82
  -7  17   8  390.98   27.26
   7  17  -8  466.55   34.40
  -7  17   8  489.35   32.22
   7  17  -8  432.56   29.42
  -7  17   8  426.09   28.22
  -7 -17   8  409.82   32.08
  -7 -17   6  310.23   28.49
  -7  17   6  280.32   22.23
   7  17  -6  366.28   30.41
   7  17  -6  278.32   23.93
  -7  17   6  306.45   25.47
  -7  17   6  274.85   23.93
   7 -17  -6  321.56   30.85
  -7  17   6  301.03   24.83
  -7 -17   4  355.34   31.58
   7  17  -4  328.73   27.76
  -7  17   4  312.26   25.21
   7  17  -4  303.05   25.99
   7 -17  -4  336.81   32.53
  -7  17   4  304.53   27.07
  -7  17   4  339.95   28.01
  -7  17   2  405.46   28.35
   7  17  -2  385.18   30.18
  -7 -17   2  350.58   32.66
  -7 -18  13   14.19    9.45
   7  18 -13   19.00    9.63
  -7 -18  13    2.09    6.87
  -7 -18  13    7.46    8.63
   7 -18 -11   18.60    9.20
  -7 -18  11   37.95   11.83
  -7 -18  11   12.30    7.87
  -7  18  11   29.91   11.05
   7  18 -11   22.26    8.90
  -7  18  11   17.19    8.97
  -7 -18  11   26.81   11.38
  -7  18   9    7.55    6.56
  -7 -18   9    9.57    9.64
   7 -18  -9    3.58    8.14
  -7 -18   9   11.45    8.34
   7  18  -9  -10.92    9.64
  -7  18   9    2.50    7.32
   7  18  -9    1.85    6.10
  -7  18   9   17.54    7.89
  -7  18   9    6.57    7.85
  -7 -18   9   12.73    9.49
  -7 -18   7   40.61   13.32
   7  18  -7   32.70   11.64
  -7  18   7   16.83    8.57
   7  18  -7   17.96    7.01
  -7  18   7    7.28    7.53
  -7  18   7   40.51   10.90
   7 -18  -7   11.68   11.06
  -7  18   7   20.35    9.27
   7 -18  -7   -5.15    8.37
  -7  18   5   57.01   13.23
   7  18  -5   81.83   15.46
  -7  18   5   69.43   12.01
  -7 -18   5   86.93   17.43
  -7  18   5   74.79   14.21
  -7  18   5   71.12   13.24
   7 -18  -5   68.25   15.87
  -7  18   3   11.50    8.79
   7  18  -3    4.08    8.91
  -7 -19  12  585.12   41.65
  -7 -19  12  605.91   39.65
  -7  19  10  473.31   33.56
  -7 -19  10  436.31   34.96
   7 -19 -10  457.28   34.79
  -7 -19  10  480.41   35.77
  -7  19   8  593.68   36.19
   7 -19  -8  642.02   41.98
  -7  19   8  634.87   37.13
  -7 -19   8  600.76   41.43
  -7 -19   8  611.21   41.59
  -7  19   6  566.21   33.55
  -7  19   6  649.02   39.26
  -7  19   6  545.95   36.04
   7 -19  -6  553.32   40.82
  -7  19   6  570.48   36.96
   7 -20 -11   75.24   15.55
   7 -20  -9   -3.71    8.33
  -7  20   7   -0.97    6.73
  -7  20   7  -11.72    6.89
  -8   0  18  672.70   39.36
   8   0 -18  672.96   42.28
  -8   0  18  726.38   38.73
   8   0 -18  730.89   41.85
   8   0 -16  159.09   18.73
  -8   0  16  179.07   18.29
  -8   0  16  135.01   16.76
   8   0 -16  179.06   18.97
   8   0 -14 1384.69   49.13
  -8   0  14 1325.48   53.83
   8   0 -14 1395.03   51.19
   8   0 -14 1293.70   39.39
   8   0 -14 1337.45   50.27
   8   0 -12  438.21   25.57
   8   0 -12  391.19   23.24
   8   0 -12  430.19   24.13
   8   0 -12  424.51   13.48
  -8   0  12  449.64   19.49
  -8   0  12  468.52   29.70
  -8   0  10  716.37   37.01
   8   0 -10  649.72   29.98
  -8   0  10  755.03   22.67
   8   0 -10  694.22   32.45
   8   0  -8 3658.39   90.64
   8   0  -8 3664.72   88.47
   8   0  -8 3663.32   72.68
  -8   0   8 3840.15   98.61
   8   0  -6 1759.80   47.53
  -8   0   6 1737.91   48.75
   8   0  -6 1814.35   55.47
   8   0  -6 1853.57   46.26
  -8   0   6 1972.34   62.30
   8   0  -4  419.94   26.13
  -8   0   4  434.00   16.15
  -8   0   4  456.50   26.84
  -8   0   4  408.89   25.57
   8   0  -2 1452.09   55.43
  -8   0   2 1475.05   54.91
  -8   0   2 1432.28   49.64
  -8   0   0  812.30   41.43
  -8   0   0  843.57   39.49
   8   0   0  821.87   43.38
  -8   0   0  857.69   43.70
  -8   0  -2  546.38   34.43
   8   0   2  515.78   37.53
  -8   0  -2  585.88   33.28
  -8   0  -2  595.70   39.63
   8   1 -19   16.22   10.13
   8  -1 -19   14.21    9.86
   8   1 -19   17.45    8.62
   8  -1 -19   23.93   11.72
  -8   1  19    4.07    7.72
  -8  -1  19   38.29   11.84
   8   1 -17    4.14    7.56
   8  -1 -17    3.92    7.06
  -8   1  17   25.80    9.57
  -8  -1  17   -2.09    6.27
  -8   1  17   14.75    7.95
  -8  -1  17   -1.88    6.40
   8  -1 -17    3.59    6.55
   8   1 -17   17.09    7.98
   8  -1 -15    4.85    5.08
   8   1 -15    5.47    5.07
  -8   1  15   22.82    9.81
  -8  -1  15   -1.65    6.68
   8   1 -15   -4.52    6.38
   8  -1 -15    0.54    7.59
   8   1 -15   15.21    8.18
   8  -1 -15   -0.44    5.76
   8  -1 -13   11.37    6.51
   8   1 -13  -11.26    6.89
  -8  -1  13   -0.88    5.78
  -8   1  13    5.58    6.25
   8   1 -13   -0.75    4.86
   8  -1 -13    5.56    4.74
   8   1 -13    1.75    4.56
   8  -1 -13    3.07    5.54
   8  -1 -11  166.54   15.38
   8   1 -11  160.75   14.97
   8   1 -11  153.40   13.17
   8  -1 -11  162.67   14.34
   8   1 -11  160.76   14.62
   8   1 -11  156.76   10.11
  -8  -1  11  156.98    9.24
  -8   1  11  175.76   11.42
  -8   1  11  137.35   16.17
  -8  -1  11  155.15   17.36
  -8   1   9    7.05    5.48
  -8  -1   9    2.38    7.37
   8  -1  -9    4.03    5.43
   8   1  -9   26.13    7.73
   8   1  -9    8.58    5.59
   8  -1  -9    1.25    4.38
   8   1  -7  113.85   13.28
   8  -1  -7  117.49   12.59
   8  -1  -7  112.89    9.17
   8   1  -7  103.58    7.29
  -8   1   7   87.27   12.58
  -8  -1   7   97.13   13.18
   8   1  -5   51.87    7.18
  -8   1   5   60.97    6.98
  -8  -1   5   66.88    7.17
  -8  -1   5   55.08    9.59
  -8   1   5   63.86   10.66
  -8   1   5   69.79   10.79
  -8  -1   5   62.06   11.35
   8   1  -5   58.55   10.38
   8  -1  -5   59.51    9.55
  -8  -1   3   11.08    6.61
  -8   1   3    3.79    5.87
  -8   1   3    4.06    4.29
  -8  -1   3    5.41    4.91
   8   1  -3   17.17    6.67
   8  -1  -3   10.93    6.03
   8   1  -1   43.06   11.29
   8  -1  -1   21.04    7.37
  -8  -1   1   37.29   11.00
  -8   1   1   54.52   11.51
  -8   1   1   59.08   12.33
  -8   1   1   29.53    8.30
  -8  -1   1   51.77    9.28
  -8  -1  -1   -4.49    7.61
  -8   1  -1    8.88    8.46
  -8   1  -1    5.95    7.38
  -8  -1  -1  -11.41    6.58
  -8   1  -1    2.18    6.15
  -8  -1  -1   -1.32    5.63
   8   1   1   -3.39    6.66
   8  -1   1   20.85   10.78
  -8   1  -3   -4.07    6.19
  -8   2  20  833.57   47.71
   8   2 -18  943.09   49.95
   8  -2 -18  882.94   49.08
  -8  -2  18  919.82   47.45
   8   2 -18  944.16   47.89
   8  -2 -18  918.01   47.40
  -8  -2  18  941.61   44.44
  -8   2  18  943.97   46.30
   8   2 -16 1224.52   52.71
   8  -2 -16 1309.99   55.37
  -8   2  16 1317.15   51.21
  -8  -2  16 1367.36   53.82
   8   2 -16 1373.79   54.18
   8   2 -16 1371.09   54.09
   8  -2 -16 1345.50   53.59
  -8   2  16 1394.37   55.02
  -8  -2  16 1174.77   51.65
   8  -2 -14 2290.91   66.86
   8   2 -14 2475.98   71.52
  -8   2  14 2451.68   76.51
  -8  -2  14 2278.16   76.01
   8   2 -14 2393.22   71.91
   8  -2 -14 2393.20   71.96
   8   2 -14 2310.96   69.58
   8  -2 -14 2388.29   73.13
   8   2 -12 2107.97   60.10
   8   2 -12 2216.27   46.49
   8   2 -12 2258.20   65.10
   8  -2 -12 2212.69   61.48
  -8  -2  12 2243.71   73.86
  -8   2  12 2233.21   71.63
   8  -2 -12 2288.44   66.43
   8   2 -12 2365.16   67.33
   8  -2 -10 1346.74   47.57
   8   2 -10 1437.23   48.68
   8   2 -10 1356.74   40.11
   8  -2 -10 1349.13   44.36
   8   2 -10 1391.45   47.72
   8   2 -10 1393.25   41.10
  -8   2  10 1486.50   40.25
  -8  -2  10 1566.37   57.39
  -8   2  10 1392.37   52.80
  -8   2   8 2678.84   77.69
  -8  -2   8 2677.29   79.91
   8   2  -8 2728.18   73.46
   8  -2  -8 2830.51   70.88
   8  -2  -8 2786.10   62.77
   8   2  -8 2702.61   73.51
   8  -2  -8 2705.79   73.71
   8   2  -6 1181.03   33.47
   8   2  -6 1284.73   45.81
   8  -2  -6 1251.83   43.09
   8  -2  -6 1277.79   39.00
  -8   2   6 1285.35   47.03
  -8  -2   6 1165.58   47.02
   8  -2  -4 1714.86   56.30
  -8   2   4 1595.29   36.46
  -8  -2   4 1582.62   40.25
   8   2  -4 1676.95   56.11
  -8  -2   4 1610.34   54.83
  -8   2   4 1702.40   55.72
   8   2  -4 1541.07   44.68
  -8   2   4 1526.33   51.45
  -8  -2   4 1708.44   56.35
  -8  -2   2 1935.03   65.44
  -8   2   2 2074.68   67.27
  -8   2   2 2006.15   67.14
   8   2  -2 2016.38   67.31
   8  -2  -2 2017.78   67.26
  -8   2   2 1871.03   63.20
  -8  -2   2 2167.86   64.79
  -8   2   2 2045.79   56.63
  -8   2   0  670.81   37.70
  -8   2   0  675.58   35.89
   8   2   0  681.22   39.81
   8  -2   0  682.55   39.27
  -8  -2   0  687.30   38.83
  -8   2   0  697.07   38.79
  -8  -2  -2  515.33   33.56
  -8   2  -2  567.40   35.39
   8   2   2  591.55   39.62
   8  -2   2  585.00   39.66
  -8   2  -2  582.97   34.34
  -8   2  -2  578.65   38.87
  -8  -2  -2  636.02   40.69
   8   3 -19    6.20    7.43
   8  -3 -19   10.82    9.68
   8   3 -19    9.13    9.78
   8  -3 -19   16.37   10.00
  -8   3  19    6.76    8.10
  -8  -3  19    8.48    8.37
   8   3 -17    9.98    6.69
   8  -3 -17   21.40   10.08
  -8   3  17    4.65    6.49
  -8  -3  17   -5.09    8.88
  -8  -3  17   10.32    7.71
   8   3 -17   20.84   10.30
   8  -3 -17    1.75    6.82
   8   3 -15  145.85   16.15
   8  -3 -15  170.88   18.89
  -8   3  15  199.51   17.79
   8   3 -15  173.35   18.00
   8   3 -15  167.33   17.73
   8  -3 -15  170.91   17.81
  -8  -3  15  192.33   20.19
  -8   3  15  130.61   16.58
   8  -3 -13   37.86    7.53
   8   3 -13   27.56    7.89
   8  -3 -13   49.72    9.41
   8   3 -13   26.72    8.28
   8   3 -13   40.05    8.26
   8  -3 -13   55.05   10.49
  -8  -3  13   37.19   10.48
  -8   3  13   41.00    8.98
   8   3 -11  115.52    9.01
   8   3 -11  127.95   11.13
   8  -3 -11  127.57   13.84
   8   3 -11  115.38   12.72
   8  -3 -11  122.43   12.03
   8   3 -11  125.03   13.97
  -8   3  11  121.17   10.88
  -8  -3  11  127.96    6.47
  -8  -3  11  119.43   16.66
  -8   3  11  123.25   15.55
   8   3  -9  126.67    9.20
   8  -3  -9  147.40   14.73
   8   3  -9  124.67   13.46
  -8   3   9  153.18   11.81
  -8  -3   9  163.10   17.78
  -8   3   9  137.19   15.79
   8   3  -9  107.89   12.92
   8  -3  -9  134.23   12.47
   8  -3  -7    7.44    5.39
   8   3  -7   -5.88    6.03
   8   3  -7    1.84    2.06
  -8  -3   7    7.61    5.95
   8  -3  -7    0.97    3.32
   8   3  -7    5.31    1.71
  -8   3   7    3.81    5.86
  -8  -3   5  151.58   16.06
  -8   3   5  147.41   14.75
   8   3  -5  131.23    9.52
   8   3  -5  127.67   14.31
   8  -3  -5  164.43   14.01
   8   3  -5  138.25   14.46
   8  -3  -5  145.79   14.86
  -8  -3   5  154.23   15.59
  -8   3   5  125.55   13.81
  -8  -3   3   16.08    6.90
  -8   3   3   21.89    7.40
  -8   3   3   14.15    6.99
  -8  -3   3    0.73    4.68
  -8   3   3   11.62    4.90
   8   3  -3   20.49    7.35
   8  -3  -3    9.04    6.53
   8   3  -1  181.18   19.35
   8  -3  -1  183.16   19.06
  -8  -3   1  206.55   20.14
  -8   3   1  201.49   20.05
  -8   3   1  166.38   18.21
  -8   3   1  155.95   17.12
  -8  -3   1  160.86   16.05
  -8  -3  -1   31.56   10.46
  -8   3  -1   33.61   11.91
  -8   3  -1   42.50   10.14
  -8  -3  -1   25.37    7.10
  -8   3  -1   32.74    8.87
   8   3   1   28.68   10.56
   8  -3   1   25.58   12.71
  -8   3  -3    5.04    7.63
  -8   4  20  795.89   46.09
  -8   4  18 1157.65   50.83
  -8  -4  18 1159.51   50.21
   8   4 -18 1149.16   55.63
   8  -4 -18 1113.76   56.18
  -8  -4  18 1080.91   52.76
  -8   4  18 1053.12   44.82
   8   4 -18 1144.09   53.48
   8  -4 -18 1082.34   52.29
   8   4 -16 1135.45   49.72
   8  -4 -16 1131.11   51.98
  -8   4  16 1084.94   45.28
   8   4 -16 1139.97   49.88
   8   4 -16 1068.73   47.75
   8  -4 -16 1179.78   50.10
  -8  -4  16 1176.16   51.25
  -8   4  14 2536.23   57.44
   8  -4 -14 2603.02   78.97
   8   4 -14 2445.21   71.91
  -8   4  14 2494.40   69.59
   8  -4 -14 2517.90   69.13
   8   4 -14 2561.04   75.58
   8   4 -14 2656.20   76.28
   8  -4 -14 2544.68   75.21
  -8  -4  14 2732.49   83.89
  -8   4  14 2605.22   79.63
   8   4 -12 2640.07   66.74
   8   4 -12 2589.44   57.17
   8  -4 -12 2675.67   67.67
   8   4 -12 2666.09   74.52
   8   4 -12 2729.85   74.45
   8  -4 -12 2659.62   73.95
  -8  -4  12 2762.45   84.24
  -8   4  12 2666.07   79.47
   8   4 -10 2437.98   56.76
   8   4 -10 2379.19   61.56
   8  -4 -10 2620.88   64.69
   8   4 -10 2570.45   71.54
  -8  -4  10 2556.05   79.06
  -8   4  10 2611.62   75.67
   8  -4 -10 2542.70   70.43
   8   4 -10 2687.92   71.86
  -8  -4   8 3703.88   97.34
  -8   4   8 3593.74   93.21
   8   4  -8 3882.17   93.58
   8  -4  -8 3751.89   85.24
   8   4  -8 3538.90   69.18
   8  -4  -8 3717.65   83.72
   8   4  -8 3650.67   90.69
   8  -4  -8 3712.46   90.97
   8   4  -6 2781.01   55.12
   8   4  -6 2802.84   77.10
   8  -4  -6 2868.76   71.86
   8  -4  -6 2853.83   71.37
  -8  -4   6 2765.83   78.41
  -8   4   6 2560.72   73.15
   8   4  -4 1638.83   42.84
   8   4  -4 1789.51   58.34
   8  -4  -4 1685.23   56.68
  -8   4   4 1675.02   58.85
  -8  -4   4 1692.85   56.68
  -8   4   4 1644.89   50.26
  -8  -4   4 1551.80   54.67
  -8   4   4 1649.96   55.60
  -8  -4   2 1885.27   63.51
  -8   4   2 1825.56   62.99
  -8   4   2 1735.13   63.18
   8   4  -2 1879.44   64.32
   8  -4  -2 1875.53   64.01
  -8   4   2 1842.89   62.43
  -8   4   2 1759.70   49.69
  -8  -4   2 1865.21   60.54
  -8   4   0  652.24   37.57
  -8   4   0  646.46   35.79
   8   4   0  675.33   39.34
   8  -4   0  652.47   38.76
  -8  -4   0  634.85   37.35
  -8   4   0  678.58   38.44
  -8  -4  -2  510.68   33.01
  -8   4  -2  547.12   35.01
   8   4   2  571.68   39.15
   8  -4   2  541.99   37.94
  -8   4  -2  497.70   32.78
  -8   4  -2  524.08   36.68
  -8  -4  -2  547.73   37.66
  -8   5  19    1.50    7.07
  -8  -5  19    5.52    8.51
   8   5 -19    1.87    7.74
   8  -5 -19   -4.49    8.93
   8   5 -19    4.96    8.26
   8  -5 -19   12.62    9.53
  -8  -5  17   96.55   14.54
   8   5 -17   87.91   14.53
   8  -5 -17   78.61   14.91
  -8   5  17  107.64   14.43
  -8  -5  17   95.04   16.14
  -8   5  17   79.79   11.58
   8   5 -17   85.45   14.32
   8  -5 -17   84.36   14.94
   8   5 -15   -2.40    4.76
   8  -5 -15   -3.10    5.80
  -8   5  15   -3.22    4.60
   8   5 -15   12.54    7.94
  -8  -5  15    4.05    6.61
   8   5 -15   -3.14    5.91
   8  -5 -15    0.11    5.47
   8   5 -13   10.00    5.75
   8   5 -13   -6.94    5.82
   8  -5 -13   -0.57    5.66
   8  -5 -13    0.75    3.99
   8   5 -13   -2.52    5.29
   8  -5 -13    3.50    2.38
  -8   5  13    0.71    3.04
  -8  -5  13   11.06    8.30
  -8   5  13   -3.43    6.43
   8   5 -11   13.96    4.24
   8  -5 -11   29.14    8.31
   8   5 -11   20.19    6.81
   8  -5 -11   21.48    5.31
   8   5 -11   11.77    5.43
   8   5 -11   16.89    4.47
  -8   5  11   18.30    5.76
  -8  -5  11   19.86    7.37
  -8   5  11   24.08    8.09
   8  -5  -9  260.38   19.09
   8   5  -9  257.04   19.37
   8   5  -9  248.85   10.30
   8   5  -9  234.93   18.82
   8  -5  -9  249.11   15.94
  -8   5   9  224.11   17.26
   8  -5  -9  253.14   17.21
  -8  -5   9  251.44   21.68
  -8   5   9  258.85   20.80
  -8   5   7   30.76    7.68
   8  -5  -7   45.00    8.02
   8   5  -7   44.90    9.60
   8  -5  -7   27.15    7.72
   8   5  -7   37.17    8.80
   8  -5  -7   31.72    7.04
  -8  -5   7   32.69    9.11
  -8   5   7   26.52    7.29
  -8   5   5   17.49    7.65
   8   5  -5   27.89    3.53
   8   5  -5   35.75    9.42
   8  -5  -5   16.81    6.44
  -8   5   5   35.00    7.57
  -8  -5   5   30.45    9.09
  -8  -5   5   20.80    6.85
  -8   5   5   24.87    6.77
  -8  -5   3  360.09   24.70
  -8   5   3  344.61   23.95
  -8   5   3  346.89   25.96
   8   5  -3  369.48   25.42
   8  -5  -3  320.31   24.08
  -8   5   3  337.70   24.13
  -8   5   3  368.29   20.27
  -8  -5   3  359.99   24.26
  -8   5   3  359.29   19.04
   8   5  -1    4.87    6.54
   8  -5  -1    0.36    7.19
  -8  -5   1    0.81    5.62
  -8   5   1   19.13    9.06
  -8   5   1    4.30    6.75
  -8   5   1    1.21    5.84
  -8  -5   1    4.07    4.35
  -8  -5  -1  136.13   18.55
  -8   5  -1  110.75   16.70
  -8   5  -1  125.00   16.45
   8   5   1  135.16   19.24
   8  -5   1  124.84   18.13
  -8   5  -1  132.87   17.50
  -8   5  -3   73.12   13.78
  -8   5  -3   98.78   15.49
  -8   6  20  516.89   36.22
  -8   6  18  932.56   44.57
  -8  -6  18  805.34   42.01
   8   6 -18  927.57   49.60
   8  -6 -18  939.07   51.80
  -8  -6  18  898.57   48.17
  -8   6  18  829.44   39.60
   8   6 -18  910.64   47.11
   8  -6 -18  925.65   47.49
  -8  -6  16  664.33   38.72
  -8   6  16  719.29   34.74
   8   6 -16  729.55   38.78
   8  -6 -16  716.62   41.98
   8   6 -16  707.66   39.14
  -8   6  16  706.64   36.19
   8   6 -16  671.48   37.23
   8  -6 -16  735.74   38.68
  -8   6  14  883.27   26.24
   8  -6 -14  832.28   42.40
   8   6 -14  828.12   36.81
  -8   6  14  905.60   35.46
   8   6 -14  949.92   42.86
   8   6 -14  878.41   39.80
   8  -6 -14  834.84   38.97
  -8  -6  14  939.43   46.43
   8   6 -12 1528.30   45.48
  -8   6  12 1510.08   44.39
   8  -6 -12 1602.61   45.59
   8   6 -12 1572.55   55.09
   8   6 -12 1576.03   52.68
   8  -6 -12 1618.89   53.52
  -8  -6  12 1549.45   60.60
  -8   6  12 1533.81   56.70
   8   6 -10 1288.63   32.49
   8  -6 -10 1277.72   38.78
   8   6 -10 1309.71   47.94
  -8   6  10 1266.94   43.29
  -8  -6  10 1234.82   51.20
  -8   6  10 1317.79   49.78
   8  -6 -10 1271.43   45.54
   8   6 -10 1219.32   44.79
   8  -6  -8 1362.04   47.68
   8   6  -8 1320.49   47.16
  -8   6   8 1292.60   46.68
   8  -6  -8 1423.67   46.59
  -8  -6   8 1460.34   53.62
  -8   6   8 1351.58   48.43
   8  -6  -8 1331.13   41.16
   8   6  -8 1408.98   50.18
  -8   6   6  881.64   38.77
   8   6  -6  831.98   37.92
  -8   6   6  807.31   37.07
  -8   6   6  802.81   35.32
   8  -6  -6  844.24   36.02
  -8  -6   6  854.03   39.10
  -8   6   6  881.96   35.66
  -8   6   4  764.27   37.81
   8   6  -4  724.78   35.38
   8  -6  -4  780.98   36.20
  -8   6   4  755.41   21.02
  -8  -6   4  665.73   33.68
  -8   6   4  722.49   34.50
   8   6  -4  723.08   37.08
  -8   6   4  768.02   37.09
   8  -6  -4  743.62   36.30
  -8   6   4  760.05   31.85
  -8  -6   4  835.09   37.94
  -8   6   4  733.25   29.84
  -8  -6   2 1349.11   52.62
  -8   6   2 1351.22   52.43
  -8   6   2 1371.14   54.78
   8   6  -2 1365.60   54.44
   8  -6  -2 1311.43   53.01
  -8   6   2 1456.25   54.96
  -8   6   2 1358.76   42.41
  -8  -6   2 1479.99   53.36
  -8   6   0  679.33   38.61
  -8   6   0  689.15   38.31
   8   6   0  703.67   40.38
   8  -6   0  704.49   40.47
  -8  -6   0  741.80   40.44
  -8   6   0  729.23   40.18
  -8   6  -2  373.07   29.78
   8  -6   2  315.06   29.40
  -8   6  -2  410.41   30.20
  -8  -6  -2  375.17   31.30
  -8   7  19   12.58    8.19
   8   7 -19   16.00   11.31
   8   7 -19   15.02    9.67
   8  -7 -19   12.19    9.01
  -8  -7  17   10.28    6.76
   8   7 -17   23.74    9.38
   8  -7 -17   15.66    9.02
  -8   7  17   17.74    7.95
  -8  -7  17   30.63   10.68
  -8   7  17   11.02    6.19
   8   7 -17   15.36   10.11
   8  -7 -17   23.21    9.16
  -8   7  15  136.82   13.85
  -8  -7  15  144.46   18.32
   8   7 -15  108.82   14.12
   8  -7 -15  126.79   17.98
   8   7 -15  139.89   17.78
  -8   7  15  132.94   15.85
   8   7 -15  129.71   15.73
   8  -7 -15  141.05   16.30
   8   7 -13    4.97    5.45
   8  -7 -13   20.80    7.06
  -8   7  13    8.89    3.59
   8  -7 -13    4.87    3.15
   8   7 -13    3.86    3.69
  -8   7  13    9.77    4.68
   8  -7 -13   12.66    4.75
   8   7 -13   13.45    7.68
  -8   7  13   13.22    7.01
  -8  -7  13   20.64    9.02
  -8   7  11   14.21    4.99
   8   7 -11   17.62    4.44
   8   7 -11   19.37    7.34
   8  -7 -11   14.43    4.79
  -8  -7  11   23.12    7.88
  -8   7  11   10.69    6.76
   8  -7 -11   19.84    7.01
   8   7 -11   18.18    6.76
   8  -7  -9  307.14   20.73
   8   7  -9  291.56   20.54
  -8   7   9  331.41   20.78
   8  -7  -9  288.93   16.29
   8   7  -9  312.89   22.85
  -8   7   9  288.03   21.84
   8  -7  -9  346.18   22.38
  -8  -7   9  321.43   24.39
  -8   7   9  297.48   21.97
  -8   7   7    8.19    6.26
   8  -7  -7    0.01    4.88
   8   7  -7    2.67    5.27
   8  -7  -7    1.67    3.86
   8   7  -7   -6.82    6.55
  -8   7   7    1.43    5.04
  -8   7   7   -1.69    5.38
  -8   7   7   11.54    6.25
  -8  -7   7    7.19    6.05
   8  -7  -7    1.69    4.88
  -8   7   5   54.49   10.30
  -8   7   5   52.58    6.38
  -8  -7   5   54.04    9.57
  -8   7   5   50.15    8.89
   8   7  -5   53.67   10.27
  -8   7   5   57.40    8.86
  -8   7   5   42.47    9.00
   8  -7  -5   39.50    9.09
  -8  -7   5   67.15   11.16
  -8  -7   3  240.53   20.05
  -8   7   3  251.95   20.54
  -8   7   3  260.01   23.01
   8   7  -3  282.78   22.27
   8  -7  -3  249.05   20.98
  -8   7   3  239.34   21.00
  -8   7   3  251.88   17.29
   8  -7  -3  236.19   21.55
  -8  -7   3  252.98   21.24
   8   7  -1    9.14    6.37
   8  -7  -1    4.89    6.20
  -8  -7   1    8.76    7.73
  -8   7   1   13.48    8.41
  -8   7   1   11.88    6.90
  -8   7   1    5.65    5.77
  -8  -7   1    9.70    6.84
  -8  -7  -1    8.99    8.60
  -8   7  -1   -1.41    6.24
  -8   7  -1   15.11    9.23
  -8   7  -1    6.56    7.02
   8   7   1    7.25    8.95
   8  -7   1    5.02    8.27
   8   8 -18  423.25   33.47
   8  -8 -18  438.94   36.23
  -8  -8  18  409.89   33.02
  -8   8  18  432.55   28.13
   8   8 -18  481.53   33.60
   8  -8 -18  472.64   33.86
  -8  -8  16  741.02   41.95
  -8   8  16  767.47   34.99
   8   8 -16  733.06   41.29
   8  -8 -16  753.68   44.00
   8   8 -16  786.54   40.61
  -8   8  16  757.00   38.02
   8   8 -16  809.67   40.86
   8  -8 -16  766.58   39.69
  -8  -8  14  296.88   26.49
  -8   8  14  291.67   18.15
   8   8 -14  290.34   21.02
   8   8 -14  316.82   25.11
  -8   8  14  291.87   16.60
  -8   8  14  250.81   21.45
   8   8 -14  273.98   21.93
   8  -8 -14  362.59   24.59
   8   8 -12  631.53   31.09
   8  -8 -12  637.95   31.23
   8  -8 -12  594.63   24.97
  -8   8  12  582.05   24.99
   8   8 -12  606.78   25.64
  -8  -8  12  612.97   32.20
  -8   8  12  591.60   23.60
   8  -8 -12  600.31   23.88
   8   8 -12  606.37   33.30
  -8  -8  12  638.25   20.20
  -8   8  12  613.46   27.66
  -8   8  12  618.48   33.15
  -8  -8  12  612.44   36.81
   8  -8 -10 1015.46   40.13
   8   8 -10  981.20   39.37
  -8  -8  10 1015.79   43.22
   8  -8 -10 1009.31   31.52
   8   8 -10  998.09   42.66
   8   8 -10 1030.48   25.55
  -8   8  10 1015.46   38.05
  -8   8  10 1024.51   39.20
  -8   8  10 1055.29   43.21
  -8  -8  10 1123.93   47.88
   8  -8  -8  774.17   34.46
   8   8  -8  731.06   33.76
  -8   8   8  733.00   33.86
   8   8  -8  823.78   38.06
   8  -8  -8  832.87   29.09
  -8   8   8  781.33   35.06
  -8   8   8  751.81   35.28
   8  -8  -8  746.34   35.30
  -8  -8   8  776.52   38.36
  -8   8   6  876.64   31.27
  -8   8   6  900.40   40.72
   8   8  -6  897.31   41.46
   8  -8  -6  993.90   34.32
  -8   8   6  929.77   40.76
  -8   8   6  899.01   37.72
   8  -8  -6  946.01   41.06
  -8  -8   6  879.79   40.89
  -8  -8   4 1091.31   43.24
  -8   8   4 1044.09   42.25
   8   8  -4 1053.44   43.98
   8  -8  -4 1068.22   44.08
   8   8  -4 1072.38   41.39
  -8   8   4  990.72   44.72
   8   8  -4 1083.65   47.17
  -8   8   4 1115.12   46.81
  -8   8   4 1014.68   39.00
   8  -8  -4 1057.09   46.54
  -8  -8   4 1086.65   46.27
  -8  -8   2  515.32   30.85
  -8   8   2  573.33   32.14
   8   8  -2  466.59   30.60
   8  -8  -2  509.36   31.88
   8   8  -2  544.97   27.53
  -8   8   2  465.63   31.04
  -8   8   2  495.35   24.57
   8  -8  -2  530.65   34.56
  -8   8   2  535.61   32.75
  -8  -8   2  534.66   32.01
  -8   8   0  781.55   42.60
  -8  -8   0  782.22   40.12
   8   8   0  805.77   43.48
   8  -8   0  788.30   42.99
  -8   8   0  783.10   42.18
  -8  -8   0  782.01   41.87
  -8   8   0  752.51   41.12
  -8   8  -2  780.55   44.13
  -8  -9  19   14.26    8.65
   8   9 -19   -3.88    8.30
  -8  -9  17   -9.01    8.00
   8   9 -17   -5.97    7.94
   8  -9 -17   -3.52    9.50
  -8  -9  17    4.86    7.62
  -8   9  17   12.65    7.28
   8   9 -17   -1.71    6.94
   8  -9 -17    1.64    6.59
   8   9 -15  195.03   18.92
  -8  -9  15  205.62   22.17
   8   9 -15  188.36   18.58
   8  -9 -15  160.38   20.73
  -8  -9  15  201.17   17.98
   8   9 -15  161.81   19.25
  -8   9  15  165.44   17.47
   8  -9 -15  202.11   19.62
   8  -9 -13   16.92    6.39
   8   9 -13    9.85    6.57
  -8   9  13    7.35    3.46
   8  -9 -13   16.66    5.03
  -8  -9  13   20.84    7.75
   8   9 -13   14.79    6.18
  -8   9  13   16.04    5.09
   8   9 -13   13.51    7.60
  -8   9  13    9.39    6.91
  -8   9  13    8.46    4.39
  -8  -9  13   16.06    9.00
  -8  -9  13   14.87    4.84
   8  -9 -11   -2.50    4.63
   8   9 -11    8.67    5.99
  -8   9  11   -0.61    4.08
   8   9 -11    2.74    3.00
  -8  -9  11   -5.63    6.70
  -8   9  11    1.86    2.21
   8  -9 -11   -2.72    3.53
   8   9 -11    1.32    6.25
  -8   9  11    3.72    5.58
  -8   9  11   -6.58    4.48
  -8  -9  11    2.60    6.20
   8  -9  -9    7.22    5.60
   8   9  -9    0.64    4.51
  -8   9   9    1.62    4.09
  -8  -9   9   -1.41    6.23
   8   9  -9    2.71    6.08
   8  -9  -9    3.57    2.86
  -8   9   9    3.64    5.01
  -8   9   9    5.33    5.35
   8  -9  -9   10.34    6.01
  -8  -9   9   -5.60    6.11
  -8   9   7   59.23    9.92
  -8   9   7   45.78    7.80
   8  -9  -7   45.37    8.84
   8   9  -7   49.53    9.61
   8   9  -7   65.32   11.54
   8  -9  -7   58.85    7.60
  -8   9   7   58.01    9.71
  -8   9   7   56.17   10.39
   8  -9  -7   52.57    9.63
  -8  -9   7   64.42   11.97
  -8   9   5   36.99    9.23
   8   9  -5   10.77    5.87
  -8   9   5   27.49    5.14
  -8  -9   5   25.47    7.46
  -8   9   5   32.69    8.27
   8   9  -5   36.44    9.54
  -8   9   5   29.93    9.00
  -8   9   5   25.85    6.42
  -8  -9   5   21.98    8.42
   8  -9  -5   34.01    9.32
   8   9  -3    6.03    7.18
   8  -9  -3    4.47    6.30
  -8   9   3   13.03    7.55
   8   9  -3    2.95    5.11
   8   9  -3    3.57    7.62
  -8   9   3    1.74    4.71
  -8   9   3    3.15    6.46
  -8  -9   3    3.27    5.70
  -8   9   3    3.52    5.40
  -8  -9   3    7.83    7.61
   8  -9  -3   -4.93    8.35
   8   9  -1  119.71   17.01
   8  -9  -1  124.43   16.39
  -8  -9   1  121.76   16.44
  -8   9   1  100.22   14.49
  -8   9   1  113.39   16.27
  -8   9   1   88.35   14.54
  -8  -9   1  109.65   15.55
   8  -9  -1  111.75   17.87
  -8   9  -1   52.00   11.51
  -8   9  -1   16.45    7.28
   8   9   1   17.60    8.56
   8  -9   1   15.41    9.03
  -8  -9  -1   34.42    9.82
  -8   9  -1   30.42    9.82
   8  10 -18  390.60   30.73
   8 -10 -18  333.75   28.92
   8  10 -18  314.39   29.09
   8 -10 -16 1087.05   56.16
   8  10 -16 1168.93   51.18
  -8 -10  16 1164.23   54.77
   8  10 -16 1051.05   52.01
  -8  10  16 1129.05   48.42
   8  10 -16 1089.00   48.36
   8 -10 -16 1114.96   48.75
   8  10 -14 1300.10   49.21
   8 -10 -14 1235.23   48.17
  -8 -10  14 1239.52   49.06
  -8 -10  14 1262.93   42.65
   8  10 -14 1158.50   45.46
   8  10 -14 1233.25   52.92
  -8  10  14 1260.96   50.70
  -8 -10  14 1266.69   57.57
   8  10 -12  942.13   38.90
   8 -10 -12  957.14   39.30
  -8 -10  12 1030.01   44.34
   8 -10 -12  969.74   36.26
  -8  10  12  900.13   33.29
   8  10 -12  927.57   33.04
   8  10 -12  980.11   44.19
  -8  10  12  980.50   36.21
  -8  10  12  955.31   42.86
  -8 -10  12  951.76   47.17
   8 -10 -10 1528.91   51.91
   8  10 -10 1606.34   52.59
  -8  10  10 1632.19   51.60
  -8 -10  10 1786.71   61.71
   8 -10 -10 1675.65   40.00
   8  10 -10 1696.66   59.52
  -8  10  10 1614.40   52.78
  -8  10  10 1664.43   57.75
  -8 -10  10 1752.55   63.86
   8 -10  -8  577.17   30.01
   8  10  -8  644.00   31.20
  -8  10   8  701.65   33.43
  -8 -10   8  704.50   37.67
   8 -10  -8  689.21   24.09
   8  10  -8  634.98   34.78
  -8 -10   8  684.47   37.04
  -8  10   8  709.07   34.18
  -8  10   8  673.04   33.90
   8 -10  -8  708.00   36.37
  -8  10   8  655.74   30.43
  -8 -10   6 1745.57   56.63
  -8  10   6 1880.81   57.17
   8  10  -6 1887.24   59.29
   8 -10  -6 1798.25   58.50
  -8  10   6 1898.91   51.10
   8  10  -6 1866.86   61.82
  -8  10   6 1793.11   61.28
   8  10  -6 1829.08   64.32
   8 -10  -6 1823.43   50.41
  -8  10   6 1864.87   62.71
   8 -10  -6 1846.11   64.85
  -8  10   6 1843.06   58.97
  -8 -10   6 2050.76   67.93
  -8 -10   4 1697.81   57.44
  -8  10   4 1659.28   56.11
   8  10  -4 1901.05   60.54
  -8  10   4 1745.49   62.91
  -8  10   4 1768.64   55.79
   8  10  -4 1822.56   65.49
   8 -10  -4 1833.22   67.43
  -8  10   4 1736.89   62.76
  -8 -10   4 1867.95   65.56
  -8 -10   2  472.50   29.72
  -8  10   2  471.95   29.39
   8  10  -2  431.03   29.81
   8 -10  -2  433.90   29.64
   8  10  -2  496.88   28.39
  -8  10   2  481.68   31.97
   8  10  -2  492.28   33.76
  -8  10   2  467.81   24.93
   8 -10  -2  491.01   35.08
  -8  10   2  498.07   32.63
  -8 -10   2  466.55   31.39
  -8 -10   0  851.64   44.43
  -8  10   0  871.29   44.66
  -8  10   0  933.15   47.85
   8  10   0  925.39   47.74
   8 -10   0  949.19   47.97
  -8 -10   0  972.25   47.26
   8 -10   0  932.08   52.43
  -8  10   0  831.21   45.55
   8  11 -19   15.72   12.16
   8  11 -17   27.06   10.46
   8 -11 -17   11.81   10.77
  -8  11  17    5.49    9.68
  -8 -11  17   17.11   10.48
  -8  11  17   32.87    9.33
   8  11 -17   14.34    8.79
   8 -11 -17    2.96    7.65
   8  11 -15    1.35    5.48
  -8 -11  15   17.03    7.58
  -8 -11  15   -0.22    7.11
   8  11 -15   14.07    9.56
  -8  11  15    2.54    6.43
   8  11 -15   -2.19    6.14
   8 -11 -15    9.00    7.44
   8  11 -13    8.51    6.93
   8 -11 -13   -0.07    5.92
  -8  11  13   10.85    4.55
   8 -11 -13    7.57    4.64
  -8 -11  13    9.72    5.55
   8  11 -13    7.46    5.11
  -8 -11  13    6.43    6.29
   8  11 -13    5.32    6.05
  -8  11  13   -1.25    6.38
  -8  11  13   20.93    5.95
  -8 -11  13   11.14    8.35
   8  11 -11    4.57    5.95
   8 -11 -11    5.71    5.67
  -8  11  11   -0.22    5.13
  -8 -11  11   10.94    8.18
  -8  11  11   -5.50    6.93
   8  11 -11    6.28    7.10
  -8  11  11   11.05    7.03
  -8  11  11   12.14    6.32
  -8 -11  11    1.47    6.81
   8 -11  -9   21.10    5.98
   8  11  -9   33.88    7.66
  -8  11   9   20.46    7.52
  -8 -11   9    3.40    6.50
  -8  11   9   24.30    7.88
   8  11  -9   37.18   10.02
  -8  11   9   12.59    7.07
  -8  11   9   26.28    8.09
   8 -11  -9   19.73    8.28
  -8 -11   9   23.32    7.77
   8  11  -7  164.54   15.41
   8 -11  -7  160.65   15.74
  -8  11   7   98.47   13.06
  -8 -11   7  135.24   17.55
   8  11  -7  144.98   16.73
  -8  11   7  133.68   12.77
   8 -11  -7  135.23   10.56
   8  11  -7  145.44   17.24
  -8  11   7  153.05   16.06
  -8  11   7  134.84   15.16
  -8 -11   7  157.92   18.36
   8 -11  -7  154.76   17.96
  -8  11   5    6.80    6.03
   8  11  -5   -8.99    8.45
  -8  11   5   -0.86    3.60
  -8 -11   5    4.94    6.05
  -8  11   5   -1.77    4.69
   8  11  -5    2.75    6.11
  -8  11   5    1.85    4.80
  -8  11   5    6.76    6.23
  -8 -11   5    0.63    6.30
   8 -11  -5   15.41    9.05
  -8  11   3   -0.64    7.09
   8  11  -3   19.96    7.18
   8  11  -3   10.44    9.48
   8 -11  -3    9.91    7.42
  -8 -11   3    8.29    7.39
  -8  11   3    8.08    8.38
  -8  11   3   10.83    5.40
  -8 -11   3    7.41    5.43
  -8  11   3   31.14    8.64
   8  11  -1   42.39   10.76
   8 -11  -1   42.45   11.13
  -8 -11   1   33.22    8.53
  -8  11   1   28.56    8.54
  -8  11   1   67.90   13.05
  -8  11   1   51.55   12.80
  -8 -11   1   33.39    9.89
   8 -11  -1   13.32   10.66
   8  11  -1   63.71   14.21
   8  11   1   13.17    8.52
   8 -11   1   12.38    8.14
  -8 -11  -1    6.84    7.92
  -8  11  -1   27.76    9.82
  -8  12  18  620.38   38.69
  -8 -12  18  612.80   37.54
   8 -12 -16 1446.23   67.23
  -8  12  16 1303.85   61.47
   8  12 -16 1494.97   63.61
  -8  12  16 1400.16   56.34
   8  12 -16 1456.74   56.50
   8 -12 -16 1261.08   53.44
  -8 -12  16 1364.95   62.25
  -8 -12  14  853.52   36.83
  -8 -12  14  808.26   40.74
  -8  12  14  842.38   45.12
  -8  12  14  894.59   42.73
   8  12 -14  823.39   43.56
  -8 -12  14  826.30   46.67
   8  12 -14  853.12   38.82
   8 -12 -14  788.59   37.53
   8  12 -12 1532.44   51.40
   8 -12 -12 1571.46   52.01
   8 -12 -12 1473.64   50.94
  -8 -12  12 1561.28   54.23
  -8  12  12 1450.65   46.26
  -8 -12  12 1582.02   59.60
  -8  12  12 1549.32   58.55
   8  12 -12 1432.38   57.19
  -8  12  12 1408.70   46.97
  -8  12  12 1482.64   56.49
  -8 -12  12 1540.04   62.78
   8 -12 -10 2054.83   61.49
   8  12 -10 2060.43   61.14
  -8  12  10 2101.72   62.93
  -8 -12  10 2230.36   73.90
  -8  12  10 2188.02   68.28
   8  12 -10 2143.87   70.76
  -8  12  10 2199.26   65.13
  -8  12  10 2178.86   69.89
  -8 -12  10 2297.51   76.73
   8 -12  -8  919.35   38.02
   8  12  -8  908.91   37.22
  -8  12   8  921.61   40.33
  -8 -12   8  899.75   45.28
  -8  12   8  939.43   38.30
  -8  12   8  901.85   41.40
   8  12  -8  918.80   43.21
  -8  12   8  889.28   40.35
   8 -12  -8  922.87   45.59
  -8 -12   8 1023.71   47.77
   8 -12  -6 1049.40   42.68
   8  12  -6 1064.59   42.29
  -8 -12   6 1056.65   41.02
  -8  12   6 1060.95   40.22
  -8  12   6 1106.75   47.05
  -8 -12   6 1075.02   51.38
   8  12  -6 1061.15   47.85
  -8  12   6 1029.36   43.59
  -8 -12   6 1143.25   51.38
   8 -12  -6 1162.58   52.14
  -8  12   6 1130.09   48.06
  -8  12   6 1082.84   38.05
   8  12  -6 1112.89   47.48
  -8 -12   4 1324.24   49.32
  -8  12   4 1341.72   48.68
   8  12  -4 1446.25   54.71
  -8  12   4 1322.57   55.03
   8  12  -4 1291.48   55.93
  -8  12   4 1382.72   50.30
  -8  12   4 1366.56   56.14
   8 -12  -4 1437.51   61.69
  -8 -12   4 1507.00   60.44
  -8 -12   2  314.91   24.26
  -8  12   2  307.65   23.60
   8  12  -2  331.82   26.17
   8 -12  -2  307.43   25.18
   8  12  -2  327.44   24.65
  -8  12   2  368.72   29.50
   8  12  -2  369.19   29.62
  -8  12   2  312.12   21.58
   8 -12  -2  329.94   30.14
  -8  12   2  294.26   26.55
  -8 -12   2  345.16   28.85
   8  12   0  662.06   42.47
  -8 -12   0  726.95   43.15
  -8 -12   0  670.00   38.82
  -8  12   0  651.40   37.90
   8  12   0  638.02   39.08
   8 -12   0  597.61   37.63
  -8  13  17   -1.25    6.66
  -8 -13  15   17.02    8.99
  -8 -13  15   30.58    9.33
  -8  13  15    4.59    8.36
   8  13 -15   27.44   11.36
  -8  13  15    3.47    8.09
   8  13 -15   25.95    9.21
   8 -13 -15   -3.55    6.06
   8  13 -13   10.87    7.07
   8 -13 -13   11.62    7.50
   8 -13 -13    8.09    6.00
  -8 -13  13    7.21    7.59
  -8 -13  13    1.55    5.85
  -8  13  13    7.66    6.80
   8  13 -13    9.69    8.84
  -8  13  13    3.67    6.69
  -8 -13  13   10.30    9.00
   8  13 -11   31.92    7.47
   8 -13 -11   31.01    7.52
   8 -13 -11   29.02    8.36
  -8  13  11   26.18    7.41
  -8 -13  11   16.59    8.38
  -8 -13  11   24.96    9.17
  -8  13  11   34.31   10.65
   8  13 -11   22.64    8.65
  -8  13  11   29.89   10.17
  -8  13  11   18.73    7.19
  -8 -13  11   22.76    8.13
   8 -13  -9  105.98   12.33
   8  13  -9  129.95   13.14
  -8  13   9  110.01   13.39
  -8 -13   9  125.79   17.05
  -8  13   9  119.94   14.38
   8  13  -9  127.34   16.81
  -8  13   9  127.48   16.19
  -8  13   9  131.32   15.27
   8 -13  -9  161.52   19.79
  -8 -13   9  131.64   17.81
  -8 -13   7   72.52   10.15
  -8  13   7   72.31    9.74
   8 -13  -7   78.95   11.85
   8  13  -7   91.50   11.83
  -8  13   7   79.05   12.74
  -8 -13   7   50.30   12.56
   8  13  -7  101.07   15.27
  -8  13   7   69.81   10.46
   8  13  -7   50.68   11.53
  -8  13   7   66.80   12.02
  -8  13   7   53.69   10.53
  -8 -13   7  113.33   17.07
   8 -13  -7   63.25   13.13
   8 -13  -5    2.31    5.34
   8  13  -5    1.71    4.54
  -8 -13   5   -1.67    5.16
  -8  13   5    2.30    4.91
  -8  13   5   -3.31    6.70
  -8 -13   5   10.25    8.68
   8  13  -5   -0.62    6.67
   8  13  -5   14.95    9.25
  -8  13   5    2.13    6.51
  -8  13   5    9.84    5.62
  -8 -13   5   -2.47    7.29
   8 -13  -5    6.62    8.34
  -8  13   3   26.84    9.29
   8  13  -3   16.28    8.49
  -8 -13   3   19.75    7.92
  -8  13   3   21.15    6.65
   8  13  -3   26.54    9.96
  -8  13   3   10.36    6.30
  -8  13   3   25.36    7.79
   8 -13  -3   18.78   10.41
   8  13  -1   33.43   10.81
   8 -13  -1   23.38    8.92
  -8 -13   1   34.74    9.55
  -8  13   1   43.65   12.16
   8  13  -1   17.56    7.89
   8  13  -1   55.61   14.59
  -8 -13   1   28.68   10.54
   8 -13  -1   45.25   14.77
  -8  13   1   43.59   11.89
  -8  14  16  729.68   40.59
  -8  14  14  479.87   32.38
   8  14 -14  472.41   33.65
  -8  14  14  525.13   36.10
  -8 -14  14  529.98   34.28
  -8 -14  14  519.29   37.58
   8 -14 -12  617.51   33.48
  -8  14  12  562.54   28.04
  -8 -14  12  674.06   36.04
  -8 -14  12  527.97   35.08
  -8  14  12  630.59   36.78
  -8  14  12  612.34   36.10
   8  14 -12  541.83   34.62
  -8 -14  12  691.76   41.63
   8 -14 -12  565.84   29.26
   8 -14 -10 1350.05   45.58
  -8  14  10 1350.88   49.27
  -8 -14  10 1481.74   60.44
  -8  14  10 1326.52   52.43
  -8  14  10 1368.04   54.61
   8  14 -10 1283.70   53.89
  -8  14  10 1280.50   49.16
  -8 -14  10 1357.46   59.13
   8 -14  -8  639.67   30.62
  -8  14   8  662.37   35.04
  -8 -14   8  655.98   40.34
  -8  14   8  616.81   32.19
   8  14  -8  707.13   40.00
  -8  14   8  662.83   36.22
   8  14  -8  661.40   37.17
  -8  14   8  710.47   36.67
   8 -14  -8  647.39   40.14
  -8 -14   8  676.85   40.41
   8 -14  -6 1224.43   45.94
  -8 -14   6 1187.95   43.18
  -8  14   6 1125.12   50.14
  -8 -14   6 1185.33   56.28
  -8  14   6 1181.06   48.61
   8  14  -6 1207.80   52.90
  -8  14   6 1171.16   42.30
   8  14  -6 1233.48   53.34
   8 -14  -6 1234.59   57.96
  -8  14   6 1160.09   51.24
  -8 -14   6 1189.77   55.10
   8  14  -4  937.14   47.46
  -8  14   4  913.58   41.27
   8  14  -4  843.85   43.45
  -8  14   4  826.14   44.57
   8 -14  -4  877.18   50.00
  -8  14   4  871.69   45.16
  -8  14   2  233.79   24.39
   8  14  -2  239.91   22.31
  -8  14   2  269.41   26.22
   8 -14  -2  206.84   25.23
   8  14  -2  270.94   26.98
  -8 -14   0  553.32   39.41
  -8 -15  15   25.62    9.49
   8  15 -15   10.17    8.46
  -8  15  15    3.52    7.32
  -8 -15  15   10.04    8.07
  -8 -15  13   16.29    8.57
  -8 -15  13   14.79    7.99
  -8  15  13   22.43    9.89
   8  15 -13   18.35    8.62
  -8  15  13   25.73    8.19
  -8 -15  13    9.31    6.97
  -8  15  11    2.12    4.92
  -8 -15  11    1.86    5.65
   8 -15 -11   -4.83    5.50
  -8 -15  11   10.00    8.40
  -8  15  11    1.01    5.94
   8  15 -11   19.35    9.67
  -8  15  11    0.08    4.30
  -8  15  11    1.45    6.37
  -8 -15  11  -17.44   10.15
  -8  15   9    3.60    6.39
  -8 -15   9    9.93    7.78
  -8  15   9   -4.18    5.31
   8  15  -9    5.53    6.07
  -8  15   9    1.27    6.65
  -8  15   9    7.49    7.25
  -8 -15   9    1.55    6.74
  -8  15   7  118.00   15.34
  -8 -15   7   87.06   15.32
   8  15  -7  121.53   17.24
  -8  15   7   87.20   12.27
   8  15  -7   93.30   15.67
  -8  15   7   90.44   13.96
  -8  15   7   90.10   13.97
  -8 -15   7  119.39   17.49
   8 -15  -7   86.33   15.44
  -8  15   5  108.76   16.61
  -8 -15   5  109.95   19.20
   8  15  -5  111.89   16.66
   8  15  -5  110.06   16.30
  -8  15   5  139.40   17.61
  -8  15   5  129.77   16.00
   8 -15  -5  150.32   21.65
  -8  15   3   19.69    9.20
   8  15  -3    3.36    6.79
  -8  15   3    7.87    8.65
  -8  15   3   19.75    8.25
   8 -15  -3   -8.36   10.35
   8  15  -3    4.62    7.69
   8  15  -1   70.44   15.66
   8  15  -1   41.43   11.73
  -8 -16  14  254.56   25.38
   8  16 -14  230.52   24.17
  -8  16  14  232.20   23.53
  -8 -16  14  197.70   24.34
  -8 -16  12  507.93   35.82
  -8  16  12  572.11   36.21
  -8  16  12  465.25   33.07
   8  16 -12  581.68   36.35
   8 -16 -12  566.38   34.49
  -8 -16  12  561.93   35.40
  -8 -16  12  547.34   38.47
   8 -16 -10  453.86   32.15
  -8  16  10  416.20   27.27
  -8 -16  10  453.84   32.46
  -8 -16  10  484.32   35.27
  -8  16  10  446.35   30.51
  -8  16  10  497.05   32.68
   8  16 -10  437.51   30.95
  -8  16  10  456.80   28.76
  -8 -16  10  498.45   36.23
  -8  16   8  218.09   21.02
  -8 -16   8  214.45   23.64
   8  16  -8  241.13   24.50
  -8  16   8  219.76   19.77
   8  16  -8  243.02   22.72
  -8  16   8  205.21   20.36
  -8  16   8  167.48   20.18
  -8 -16   8  260.39   25.92
   8 -16  -8  235.61   25.92
  -8  16   6  367.44   29.19
  -8 -16   6  422.69   34.63
  -8  16   6  418.34   25.44
   8  16  -6  384.65   30.96
  -8  16   6  445.66   30.41
   8  16  -6  354.35   28.45
   8 -16  -6  410.12   34.65
  -8  16   6  349.07   28.38
  -8 -16   6  401.45   32.72
  -8 -16   4  565.58   41.50
   8  16  -4  630.12   38.62
   8 -16  -4  577.06   42.55
  -8  16   4  525.12   36.54
  -8  16   4  551.96   33.53
   8  16  -4  544.68   37.06
  -8  16   4  588.70   38.00
   8  16  -2  315.08   27.94
   8  16  -2  333.80   30.28
  -8 -17  15   -4.27    7.10
  -8 -17  15   27.70   11.93
  -8 -17  13   46.16   11.46
  -8 -17  13   53.43   12.99
   8  17 -13   67.91   14.21
  -8  17  13   62.68   13.56
  -8 -17  13   61.67   14.97
  -8  17  11   31.17    8.34
  -8 -17  11   45.04   12.10
   8 -17 -11   22.72    8.99
  -8 -17  11   33.02   11.10
  -8  17  11   40.93   11.23
   8  17 -11   38.70   10.78
  -8  17  11   23.08    9.25
  -8 -17  11   36.65   11.31
  -8  17   9   23.29    8.55
   8 -17  -9   23.45    9.61
  -8 -17   9   21.46   11.29
  -8  17   9   29.79    9.73
   8  17  -9   23.92    8.69
  -8  17   9   22.76    8.19
  -8  17   9   16.80    8.96
  -8 -17   9   40.85   13.03
  -8  17   7   28.82    9.84
  -8 -17   7   19.90   11.21
   8  17  -7   26.21   11.35
  -8  17   7    8.65    6.04
   8  17  -7   16.09    8.73
  -8  17   7   42.33   11.57
  -8  17   7   23.49    8.95
  -8 -17   7   53.44   13.77
   8 -17  -7   25.56   12.85
  -8  17   5    9.55    8.18
  -8 -17   5    8.55    9.49
   8  17  -5    7.55    7.85
  -8  17   5    9.31    7.30
  -8  17   5   18.98    8.36
   8 -17  -5   18.00   11.68
   8  17  -5    3.96    7.37
   8  17  -3   27.09   11.36
  -8  17   3   19.15    9.06
  -8 -18  14  239.84   27.72
  -8 -18  12  440.20   35.38
   8  18 -12  496.55   34.74
   8 -18 -12  445.87   33.05
  -8 -18  12  526.78   36.77
  -8 -18  12  452.89   36.52
   8 -18 -10  298.05   27.82
  -8  18  10  258.86   22.49
  -8 -18  10  282.27   27.75
  -8 -18  10  250.09   27.11
  -8  18  10  313.47   26.79
   8  18 -10  297.74   26.60
  -8  18  10  249.32   22.52
  -8 -18  10  298.27   29.11
  -8  18   8  414.24   30.23
  -8 -18   8  418.90   35.08
   8  18  -8  362.86   29.18
  -8  18   8  384.91   30.05
  -8  18   8  420.45   28.96
   8  18  -8  406.95   34.20
   8 -18  -8  447.43   37.70
  -8  18   8  389.95   29.86
  -8 -18   8  421.80   34.78
   8  18  -6  388.81   32.86
  -8  18   6  405.89   31.81
  -8  18   6  438.05   33.02
  -8  18   6  442.71   31.97
   8  18  -6  417.51   31.68
  -8  18   4  296.38   25.71
  -8 -19  13    8.85    8.75
   8  19 -13   19.35    9.46
   8 -19 -11   37.60   12.38
  -8 -19  11   32.98   12.61
   8  19 -11   18.97    9.31
  -8  19   9   47.28   12.21
  -8  19   9   52.97   11.93
   8 -19  -9   46.76   13.85
  -8  19   9   30.21    9.73
  -8  19   7   -2.99    7.03
  -8  19   7    6.02    7.79
  -8  19   7    8.63    8.68
  -8  20   8  411.02   30.62
   9   0 -19  -12.32    7.56
  -9   0  19   -1.78    6.86
   9   0 -19    2.72    7.23
  -9   0  19    0.36    5.60
   9   0 -17  -13.61    8.91
  -9   0  17   -6.15    7.47
   9   0 -17   -2.19    6.29
  -9   0  17   10.65    9.04
   9   0 -17   19.53    8.89
   9   0 -15   -2.25    6.16
   9   0 -15   -8.58    6.83
  -9   0  15    6.57    6.88
   9   0 -15   10.49    7.12
   9   0 -13   -2.85    4.48
   9   0 -13   -5.13    5.25
   9   0 -13    0.71    1.69
  -9   0  13   -3.77    6.29
  -9   0  13    3.01    2.66
   9   0 -13   -1.05    5.47
   9   0 -11    1.45    4.62
  -9   0  11    4.61    6.52
  -9   0  11    1.35    2.40
   9   0 -11    1.38    5.23
   9   0  -9    0.51    5.36
  -9   0   9   11.49    8.48
   9   0  -9    5.42    2.68
   9   0  -9   14.78    6.84
  -9   0   7    9.48    6.36
   9   0  -7    2.25    3.05
   9   0  -7   -6.52    5.32
  -9   0   5   -2.95    5.09
  -9   0   5   11.67    6.99
   9   0  -5    5.09    6.59
  -9   0   3   -2.46    6.27
  -9   0   3    3.80    5.36
   9   0  -3   -4.35    7.76
  -9   0   1   12.48    7.91
  -9   0   1   -3.72    6.26
   9   0  -1    0.06    7.70
  -9   0   1    0.22    5.94
  -9   0  -1   -4.81    6.95
  -9   0  -1    5.04    8.48
   9   1 -20  769.86   48.26
   9  -1 -20  710.59   46.62
  -9   1  20  832.66   46.58
  -9  -1  20  763.33   42.23
   9   1 -20  771.97   46.33
   9  -1 -20  748.58   45.71
  -9  -1  20  833.06   47.17
   9   1 -18  404.59   31.06
   9  -1 -18  379.22   30.54
  -9   1  18  448.56   31.13
  -9  -1  18  386.34   29.44
  -9   1  18  359.16   28.83
  -9  -1  18  378.42   29.45
   9   1 -18  389.50   30.11
   9  -1 -18  390.52   29.98
   9  -1 -16  951.16   42.25
   9   1 -16  991.24   43.95
  -9   1  16  901.33   45.97
  -9  -1  16  890.66   45.76
   9   1 -16  881.36   42.50
   9  -1 -16  861.08   43.09
   9   1 -16  990.44   45.49
   9  -1 -16  969.63   45.03
   9  -1 -14 1330.86   48.20
   9   1 -14 1358.67   50.07
  -9   1  14 1340.64   56.10
  -9  -1  14 1269.19   55.43
   9   1 -14 1376.72   51.87
   9  -1 -14 1360.58   51.67
   9  -1 -14 1405.15   50.79
   9   1 -14 1340.66   48.46
   9  -1 -12  623.30   32.09
   9   1 -12  610.64   31.94
   9   1 -12  582.63   26.94
   9  -1 -12  609.70   29.83
   9   1 -12  599.90   30.62
   9   1 -12  584.92   22.78
  -9   1  12  648.99   24.03
  -9  -1  12  631.36   20.11
  -9  -1  12  680.18   38.10
  -9   1  12  569.70   34.73
   9   1 -10 2437.16   69.45
   9  -1 -10 2370.18   67.28
  -9   1  10 2369.38   75.90
  -9  -1  10 2555.71   79.60
   9  -1 -10 2430.21   71.37
   9   1 -10 2451.24   71.44
   9  -1  -8 1021.51   42.87
   9   1  -8 1079.97   43.84
   9   1  -8 1051.16   28.34
   9  -1  -8 1117.26   33.13
  -9   1   8 1079.80   46.29
  -9  -1   8 1114.23   47.76
   9   1  -8 1099.21   43.03
   9  -1  -8 1045.61   41.10
   9   1  -6  766.30   35.88
   9  -1  -6  699.82   28.54
  -9   1   6  733.48   36.17
  -9  -1   6  777.78   37.94
   9   1  -4 2184.58   71.12
   9  -1  -4 2069.47   69.27
  -9   1   4 2120.82   65.13
  -9  -1   4 2215.62   69.36
  -9  -1   4 2061.81   68.99
  -9   1   4 2066.51   68.91
   9   1  -2  888.98   45.82
   9  -1  -2  913.44   46.07
  -9  -1   2  897.39   45.06
  -9   1   2  876.18   44.76
  -9   1   2  940.23   44.03
  -9   1   2  891.53   45.05
  -9  -1   0  592.95   37.46
  -9   1   0  563.58   36.66
   9   1   0  642.39   41.23
  -9  -1   0  640.38   35.91
  -9   1   0  621.56   36.11
  -9  -1   0  523.63   36.82
  -9   1   0  634.93   39.81
   9  -1   0  622.32   40.62
  -9   1  -2  934.80   48.41
   9   2 -19    0.74    7.79
   9  -2 -19   13.90    9.05
  -9   2  19   12.47    9.03
  -9  -2  19   14.56    9.83
   9   2 -19    0.99    7.71
   9  -2 -19    3.68    7.92
  -9  -2  19   -4.34    6.46
   9   2 -17   21.55    7.47
   9  -2 -17   13.98    6.78
  -9   2  17   29.21    9.70
   9   2 -17   38.21   11.04
   9   2 -17   30.28   10.17
   9  -2 -17   22.08    9.40
  -9   2  17   34.45   10.84
  -9  -2  17   29.72    9.15
   9  -2 -15   14.78    7.28
   9   2 -15    3.72    5.96
  -9  -2  15   -2.08    6.37
  -9   2  15    7.93    7.50
   9   2 -15   10.43    8.82
   9  -2 -15   -3.67    6.66
   9   2 -15    9.40    6.42
   9  -2 -15    0.99    5.54
   9   2 -13   10.49    5.20
   9   2 -13    4.10    2.32
   9  -2 -13   -1.06    4.33
   9   2 -13   -0.87    5.31
   9  -2 -13   -3.64    6.43
   9   2 -13    2.66    6.82
  -9  -2  13    6.77    8.25
  -9  -2  13    2.02    2.68
  -9   2  13   -5.53    6.08
   9   2 -11   62.84    8.02
   9   2 -11   51.64    7.56
   9  -2 -11   54.36    9.40
   9   2 -11   58.18   10.30
   9  -2 -11   52.71   10.14
   9   2 -11   71.65   11.48
  -9  -2  11   59.25   12.02
  -9   2  11   67.40    7.94
  -9   2  11   58.82   11.41
   9   2  -9    9.13    6.48
   9  -2  -9   10.09    5.25
  -9   2   9    1.05    5.65
  -9  -2   9   11.18    6.99
   9  -2  -9   17.09    4.48
   9  -2  -9    6.07    5.57
   9   2  -9   14.36    7.65
   9   2  -7   12.20    6.95
   9  -2  -7   19.57    6.50
   9   2  -7   17.39    4.17
  -9   2   7    5.53    5.09
  -9  -2   7    8.71    7.01
   9  -2  -7   26.31    5.83
   9   2  -7   26.27    4.63
  -9   2   5   13.67    6.21
  -9  -2   5   17.64    7.62
   9   2  -5    2.20    6.14
   9  -2  -5    1.35    5.66
  -9  -2   5    2.64    6.00
  -9   2   5    4.04    5.44
   9   2  -3  247.91   22.75
   9  -2  -3  231.58   21.79
  -9   2   3  208.20   20.84
  -9  -2   3  193.82   20.35
  -9   2   3  246.78   23.39
  -9  -2   3  241.43   20.86
  -9   2   3  230.51   17.63
  -9   2   1   57.26   13.03
  -9   2   1   69.84   13.24
   9   2  -1   98.86   17.20
   9  -2  -1   77.69   15.04
  -9  -2   1   64.77   14.17
  -9   2   1   46.14   11.72
  -9   2  -1    7.17    7.30
  -9   2  -1   17.30    9.48
  -9  -2  -1   31.35   11.22
  -9   3  20  960.25   49.76
   9   3 -20  988.69   54.20
   9  -3 -20  893.36   52.45
  -9  -3  20  929.89   51.21
   9   3 -18  624.47   38.70
   9  -3 -18  620.10   39.75
  -9   3  18  715.13   38.59
  -9  -3  18  607.83   38.01
  -9  -3  18  630.05   38.22
   9   3 -18  691.10   40.10
   9  -3 -18  616.41   38.11
   9   3 -16 1900.37   65.42
   9  -3 -16 1972.88   69.66
  -9   3  16 1917.74   63.20
   9  -3 -16 1966.53   63.18
   9   3 -16 1938.03   67.13
  -9   3  16 2016.13   71.75
  -9  -3  16 1924.82   71.72
   9   3 -16 1982.52   68.47
   9  -3 -16 2025.85   69.08
   9  -3 -14 1788.48   55.35
   9   3 -14 1667.48   58.34
  -9  -3  14 1842.92   67.75
  -9   3  14 1620.88   62.93
   9   3 -14 1703.53   58.91
   9  -3 -14 1673.61   58.61
   9  -3 -14 1692.90   59.63
   9   3 -14 1607.45   53.18
   9  -3 -12 1252.92   47.57
   9   3 -12 1323.07   48.64
   9   3 -12 1234.13   39.72
   9   3 -12 1200.93   36.21
   9  -3 -12 1240.07   43.00
   9   3 -12 1270.00   47.54
  -9  -3  12 1200.03   24.96
  -9  -3  12 1302.95   55.23
  -9   3  12 1204.95   51.66
   9   3 -10 2015.96   50.29
   9   3 -10 2234.99   66.10
   9  -3 -10 2044.00   59.62
  -9  -3  10 2237.60   73.76
  -9   3  10 2117.31   69.59
   9  -3 -10 2125.06   65.39
   9   3 -10 2174.55   66.20
   9  -3  -8 2402.80   70.30
   9   3  -8 2265.73   68.81
   9   3  -8 2387.26   70.11
   9  -3  -8 2381.28   65.77
   9   3  -8 2237.94   50.65
   9  -3  -8 2385.32   60.27
   9   3  -8 2284.35   42.84
  -9  -3   8 2291.55   74.57
  -9   3   8 2215.93   70.28
  -9  -3   6  859.30   41.02
  -9   3   6  753.54   35.96
   9   3  -6  792.80   37.92
   9  -3  -6  794.73   33.00
  -9  -3   6  805.31   37.40
  -9   3   6  820.43   37.92
   9   3  -4 2025.80   69.01
   9  -3  -4 2124.09   69.85
  -9   3   4 1979.74   69.51
  -9  -3   4 2110.79   68.55
  -9   3   4 2015.79   60.29
  -9  -3   4 2085.34   68.55
  -9   3   4 2022.14   67.85
  -9  -3   2  612.24   36.79
  -9   3   2  556.36   35.51
   9   3  -2  706.71   39.88
   9  -3  -2  632.99   37.85
  -9   3   2  686.78   39.84
  -9   3   2  651.09   36.54
  -9  -3   2  667.01   35.44
  -9   3   0  351.45   29.12
   9   3   0  309.50   28.64
   9  -3   0  325.72   29.56
  -9  -3   0  319.48   28.36
  -9   3   0  316.18   28.66
  -9  -3   0  321.73   25.00
  -9   3   0  294.28   25.61
  -9   4  21   -9.36    9.79
  -9  -4  19   16.41    8.50
   9   4 -19   18.73   10.46
   9  -4 -19   23.92   10.50
  -9   4  19   10.39    6.67
  -9  -4  19    7.68    8.96
  -9   4  19   13.30    6.90
   9   4 -19   23.60   11.20
   9  -4 -19   30.19   11.47
   9   4 -17   16.49    7.78
   9  -4 -17   42.05   11.85
  -9   4  17   11.64    6.46
   9   4 -17   39.36   11.41
  -9  -4  17   38.40   10.18
   9   4 -17   40.97   10.80
   9  -4 -17   30.58   10.36
   9   4 -15   48.72   10.21
   9  -4 -15   33.87   10.43
   9   4 -15   26.39    7.75
   9  -4 -15   35.40    9.43
   9  -4 -15   25.42    7.20
   9   4 -15   48.36   10.62
  -9   4  15   42.86    6.68
  -9  -4  15   28.71   10.09
  -9   4  15   31.83    9.52
   9   4 -13   58.60    8.55
   9  -4 -13   74.28   11.71
   9   4 -13   69.23   11.50
   9  -4 -13   72.41    9.87
   9   4 -13   86.78   12.73
  -9  -4  13   68.97    5.30
  -9  -4  13   52.46   12.38
  -9   4  13   60.38   12.86
   9  -4 -11   65.15    9.15
   9   4 -11   57.68   11.06
   9  -4 -11   72.47   10.92
   9   4 -11   56.53   10.71
   9   4 -11   64.80    7.39
  -9  -4  11   48.65   11.73
  -9   4  11   74.00   12.35
   9   4  -9  116.66    7.58
   9  -4  -9   93.73   12.71
   9   4  -9  126.57   14.57
   9  -4  -9  114.78   11.50
  -9  -4   9  132.62   16.22
  -9   4   9  119.33   14.79
   9   4  -9   93.68   13.26
   9  -4  -9  113.97   12.50
   9   4  -7   70.86   12.24
   9  -4  -7   45.79    8.44
   9   4  -7   60.61    5.37
  -9  -4   7   59.08   10.82
   9  -4  -7   60.29    8.82
  -9   4   7   65.90   10.94
  -9  -4   5   13.65    6.63
  -9   4   5   -3.04    5.99
  -9   4   5    7.84    6.24
   9   4  -5    2.86    6.12
  -9  -4   5    7.15    5.44
   9  -4  -5    7.11    5.14
  -9   4   5    8.18    5.37
   9   4  -5    7.18    7.17
   9  -4  -5   10.31    6.90
   9   4  -3   -8.93    8.08
   9  -4  -3   -7.17    7.30
  -9  -4   3   -2.82    6.70
  -9   4   3    4.50    6.63
  -9   4   3   -0.96    6.94
  -9   4   3   -0.21    4.09
  -9   4   3   -0.08    6.51
  -9  -4   3    1.32    6.10
  -9   4   1   40.18   11.75
  -9   4   1   62.37   12.19
   9   4  -1   41.63   12.22
   9  -4  -1   30.39   11.38
  -9  -4   1   45.59   11.61
  -9   4   1   46.91   11.67
  -9   4  -1   33.25   10.36
  -9   4  -1   36.09   11.66
  -9  -4  -1   44.22   11.47
   9   5 -20  665.86   44.58
  -9   5  20  669.05   40.46
  -9   5  18 1432.42   56.10
  -9  -5  18 1500.78   62.01
   9   5 -18 1297.96   58.15
   9  -5 -18 1500.32   64.85
  -9  -5  18 1483.96   62.31
  -9   5  18 1394.66   56.19
   9   5 -18 1453.81   60.42
   9  -5 -18 1471.71   61.16
   9  -5 -16 1794.55   67.14
   9   5 -16 1745.13   61.37
  -9   5  16 1669.16   57.11
   9   5 -16 1798.56   65.76
   9   5 -16 1782.13   64.17
   9  -5 -16 1779.50   64.30
  -9  -5  16 1921.06   71.12
  -9   5  14 2223.38   58.52
   9  -5 -14 2309.19   63.48
   9   5 -14 2208.76   70.94
   9   5 -14 2212.59   63.39
   9   5 -14 2237.00   70.02
   9  -5 -14 2146.49   69.03
  -9  -5  14 2310.47   79.50
  -9   5  14 2245.70   75.32
  -9   5  12 1592.65   51.35
   9   5 -12 1545.02   43.88
  -9  -5  12 1725.99   65.65
  -9   5  12 1652.50   61.19
   9  -5 -12 1691.38   56.68
   9   5 -12 1680.91   56.49
   9  -5 -12 1612.23   49.04
   9   5 -12 1668.84   57.48
   9   5 -10 2301.33   48.47
   9  -5 -10 2332.59   62.33
   9   5 -10 2300.32   70.40
  -9  -5  10 2328.93   76.91
  -9   5  10 2240.97   72.44
   9  -5 -10 2368.68   69.67
   9   5 -10 2390.88   69.92
   9  -5  -8 1673.92   57.95
   9   5  -8 1860.48   60.43
   9   5  -8 1876.21   62.13
   9  -5  -8 1805.59   54.32
  -9   5   8 1658.53   59.08
   9  -5  -8 1865.79   54.98
  -9  -5   8 1865.55   64.98
  -9   5   8 1791.95   60.22
  -9  -5   6 1861.06   62.66
  -9   5   6 1907.83   62.55
  -9   5   6 1857.07   65.35
   9   5  -6 1991.12   65.86
   9  -5  -6 1982.06   60.71
  -9  -5   6 1968.98   66.77
  -9   5   6 1962.05   60.45
  -9  -5   4  694.86   36.83
  -9   5   4  660.59   35.72
   9   5  -4  758.09   38.80
   9  -5  -4  734.00   38.06
  -9   5   4  664.43   38.00
  -9   5   4  645.46   36.29
  -9   5   4  692.21   31.07
   9  -5  -4  714.15   36.62
  -9  -5   4  801.21   39.28
  -9   5   4  658.94   29.50
  -9  -5   2  754.88   41.18
  -9   5   2  718.82   40.04
   9   5  -2  751.16   42.18
   9  -5  -2  696.74   40.41
  -9   5   2  710.38   41.10
  -9   5   2  667.36   38.33
  -9  -5   2  810.17   39.99
  -9   5   0  442.06   32.73
   9   5   0  450.16   34.25
   9  -5   0  468.65   35.29
  -9   5   0  422.97   31.15
  -9  -5   0  405.92   32.43
  -9   5   0  423.58   32.93
  -9  -6  19   43.06   11.76
   9   6 -19   32.87   11.69
   9  -6 -19   24.54   11.13
  -9   6  19   23.27    8.94
  -9  -6  19   30.87   11.60
  -9   6  19   22.56    9.72
   9   6 -19   31.61   12.05
   9  -6 -19   27.46    9.23
  -9  -6  17   53.60   12.42
   9   6 -17   65.39   12.34
   9  -6 -17   78.99   15.12
  -9   6  17   70.95   11.44
   9   6 -17   68.25   14.19
  -9   6  17   83.63   13.41
   9   6 -17   61.96   12.40
   9  -6 -17   74.58   13.86
  -9   6  15   12.01    4.19
   9   6 -15    3.68    5.45
   9  -6 -15   17.54    9.05
  -9   6  15   17.12    5.98
   9  -6 -15    9.26    5.45
   9   6 -15    9.72    7.87
  -9  -6  15   29.64   11.32
   9   6 -15    3.67    5.94
   9  -6 -15   18.26    8.43
   9   6 -13   54.95    8.08
   9  -6 -13   22.41    7.17
   9   6 -13   35.38    8.49
   9  -6 -13   51.78    8.35
   9   6 -13   34.23    9.08
  -9   6  13   44.21    8.14
  -9  -6  13   49.51   11.92
  -9   6  13   47.94   11.48
  -9   6  11  336.72   21.91
   9   6 -11  369.07   15.23
   9  -6 -11  374.55   20.45
   9   6 -11  371.15   25.73
   9  -6 -11  421.12   26.16
   9   6 -11  381.97   24.76
  -9  -6  11  384.11   28.90
  -9   6  11  323.68   25.31
   9   6  -9   92.22   14.08
   9  -6  -9   82.11    9.96
  -9   6   9   47.30   10.01
   9  -6  -9   61.58   11.50
   9   6  -9   88.63   12.36
   9  -6  -9   64.40    9.78
  -9  -6   9   74.27   12.98
  -9   6   9   72.80   12.09
   9  -6  -7    4.79    4.39
   9   6  -7    1.88    6.41
  -9   6   7    4.42    6.39
   9  -6  -7    5.40    4.62
  -9  -6   7    4.74    6.10
  -9   6   7   -3.51    5.03
  -9  -6   5  748.60   37.16
  -9   6   5  724.58   36.79
  -9   6   5  707.72   38.53
   9   6  -5  816.44   41.37
  -9   6   5  709.00   38.10
  -9   6   5  722.23   33.47
   9  -6  -5  857.42   39.14
  -9  -6   5  829.41   40.61
  -9   6   5  810.76   33.70
   9   6  -3   -2.30    6.86
   9  -6  -3   -1.73    6.68
  -9  -6   3   -9.06    7.66
  -9   6   3    6.62    6.61
  -9   6   3   -3.92    5.84
  -9   6   3    2.47    3.89
  -9   6   3   11.91    8.65
   9  -6  -3    6.48    7.49
  -9  -6   3    6.58    6.47
  -9   6   1   13.26    8.61
  -9   6   1    8.82    7.35
  -9  -6   1   15.59    8.61
  -9   6   1   12.35    9.27
   9   6  -1   -1.23    7.92
   9  -6  -1   -8.01    9.17
  -9   6  -1   32.12   10.58
   9   7 -20  426.04   35.82
  -9   7  18  726.61   37.42
  -9  -7  18  732.65   42.62
   9   7 -18  697.26   42.76
   9   7 -18  688.49   40.70
   9  -7 -18  729.45   45.42
  -9  -7  18  734.52   43.75
  -9   7  18  672.34   37.95
   9   7 -18  701.38   40.87
   9  -7 -18  722.87   41.55
  -9  -7  16  684.75   41.41
   9  -7 -16  733.66   42.73
   9   7 -16  676.52   35.80
  -9   7  16  813.72   35.53
   9   7 -16  723.13   40.45
  -9   7  16  702.87   38.39
   9   7 -16  784.60   40.18
   9  -7 -16  716.39   38.81
   9   7 -14  345.16   24.66
   9  -7 -14  257.91   21.98
  -9   7  14  337.49   18.36
   9   7 -14  357.91   21.48
  -9   7  14  313.63   19.23
   9  -7 -14  330.57   19.95
   9   7 -14  347.61   26.17
  -9   7  14  277.32   24.48
  -9  -7  14  337.05   28.89
   9   7 -12 1696.55   44.79
   9  -7 -12 1860.12   50.64
   9   7 -12 1798.73   61.98
  -9   7  12 1861.12   54.98
  -9  -7  12 1843.59   69.05
  -9   7  12 1714.11   63.26
   9  -7 -12 1682.89   58.12
   9   7 -12 1778.75   59.06
   9  -7 -10 1317.87   49.17
   9   7 -10 1344.66   49.55
   9  -7 -10 1283.04   41.11
   9   7 -10 1379.65   52.08
  -9   7  10 1284.48   47.91
   9  -7 -10 1318.07   47.76
  -9  -7  10 1397.78   56.78
  -9   7  10 1289.28   51.28
   9  -7  -8 1652.61   56.79
   9   7  -8 1655.07   56.45
  -9   7   8 1629.57   57.72
   9   7  -8 1648.32   59.35
   9  -7  -8 1664.50   50.23
  -9   7   8 1586.07   56.91
   9  -7  -8 1626.53   54.95
  -9   7   8 1526.98   56.06
  -9  -7   8 1668.90   61.91
  -9   7   8 1718.21   57.32
  -9  -7   6 1006.44   43.30
  -9   7   6  997.92   42.71
  -9   7   6  966.35   31.58
  -9   7   6 1008.71   45.59
   9   7  -6  985.48   45.59
   9  -7  -6 1069.54   44.59
  -9   7   6 1006.54   45.19
  -9   7   6 1018.69   41.16
  -9  -7   6 1125.66   48.42
  -9   7   6 1089.48   41.10
  -9  -7   4 1158.02   48.89
  -9   7   4 1172.44   48.92
   9   7  -4 1188.32   50.54
   9  -7  -4 1171.32   50.02
  -9   7   4 1205.85   52.57
   9   7  -4 1177.21   52.42
   9  -7  -4 1303.84   53.02
  -9   7   4 1132.41   50.50
  -9   7   4 1136.53   42.35
  -9  -7   4 1200.91   51.20
  -9  -7   2 1112.62   51.35
  -9   7   2 1249.21   53.63
   9   7  -2 1278.63   55.75
   9  -7  -2 1118.91   52.58
  -9   7   2 1210.97   55.00
   9  -7  -2 1136.14   54.42
  -9   7   2 1228.06   54.20
  -9  -7   2 1268.09   53.33
  -9   7   0 1144.18   54.95
  -9   7   0 1105.86   53.00
  -9  -7   0 1082.73   54.08
  -9   7   0 1058.86   53.25
   9   7   0 1138.86   57.08
   9  -7   0 1097.59   55.64
   9   8 -19   -1.17    7.83
  -9   8  19   -3.66    6.28
   9   8 -19    9.54    9.61
  -9  -8  17   57.09   13.11
   9   8 -17   60.08   12.09
   9  -8 -17   59.12   14.13
   9   8 -17   54.39   12.97
  -9   8  17   72.96   12.94
   9  -8 -17   93.26   15.90
   9   8 -17   82.24   14.13
  -9  -8  15   61.56   14.35
   9   8 -15   45.15    9.33
  -9   8  15   48.69    8.32
   9   8 -15   37.45   10.87
  -9   8  15   49.67   10.52
  -9   8  15   55.56    8.48
   9   8 -15   54.94   11.41
   9  -8 -15   59.31   12.03
  -9   8  13   83.90   10.06
   9   8 -13   77.01    8.82
   9  -8 -13   77.23    9.02
   9   8 -13   52.17   11.70
  -9  -8  13   84.00   15.06
  -9   8  13   71.88   12.98
  -9   8  13   67.14    9.78
   9   8 -13   79.20   12.42
   9  -8 -13   80.33   12.14
   9   8 -11  174.85   16.76
  -9   8  11  180.87   16.26
   9   8 -11  161.99   17.51
   9  -8 -11  178.55   13.18
   9  -8 -11  169.23   16.57
  -9   8  11  179.21   18.80
  -9   8  11  157.24   15.77
  -9  -8  11  187.96   20.33
  -9   8   9    7.67    6.98
   9  -8  -9   21.30    7.48
   9   8  -9   18.26    6.69
   9   8  -9    5.05    6.95
   9  -8  -9    9.06    4.65
  -9   8   9   14.80    7.80
  -9   8   9   10.37    6.25
   9  -8  -9   16.33    6.69
  -9  -8   9   16.77    9.36
  -9   8   7    3.30    5.58
  -9   8   7   12.68    5.11
   9  -8  -7   23.02    6.58
   9   8  -7   11.72    7.02
   9  -8  -7   12.86    6.50
  -9  -8   7    0.77    6.18
  -9   8   7   14.84    7.06
  -9   8   7   10.64    7.06
   9  -8  -7   17.96    8.20
   9   8  -7   32.11    8.88
  -9  -8   5   19.94    7.34
  -9   8   5   18.79    7.60
  -9   8   5   13.86    7.13
   9   8  -5   17.42    9.27
  -9   8   5   11.60    5.84
  -9   8   5   14.28    8.78
   9  -8  -5    8.46    6.85
  -9  -8   5   34.00   10.16
   9   8  -3    1.01    7.68
   9  -8  -3   11.16    7.42
  -9  -8   3   14.58    8.28
  -9   8   3   -6.46    6.82
  -9   8   3    5.94    7.04
   9   8  -3   -5.19    6.78
  -9   8   3    0.83    4.13
  -9   8   3    8.19    8.20
   9  -8  -3    4.98    8.14
  -9  -8   3   16.37    8.53
   9   8  -1   68.57   14.50
   9  -8  -1   44.34   11.88
  -9   8   1   73.29   14.62
  -9   8   1   67.05   14.11
  -9  -8   1   29.97   10.21
  -9   8   1   43.24   11.10
   9  -8  -1   79.53   15.94
   9   9 -20  243.17   27.18
  -9  -9  18  585.83   38.55
   9   9 -18  572.85   37.05
   9  -9 -18  560.85   40.58
  -9  -9  18  542.44   38.19
  -9   9  18  457.49   31.81
   9   9 -18  483.27   33.76
   9  -9 -18  553.34   36.05
   9  -9 -16  471.73   35.25
   9   9 -16  503.94   30.37
  -9  -9  16  490.50   35.83
   9   9 -16  541.48   35.92
  -9   9  16  461.60   31.49
   9   9 -16  488.16   31.18
   9  -9 -16  526.52   32.63
   9   9 -14 1203.58   48.29
   9  -9 -14 1173.29   47.97
   9   9 -14 1204.93   42.10
   9   9 -14 1183.84   51.72
  -9   9  14 1260.93   39.22
  -9   9  14 1182.52   41.83
  -9   9  14 1176.76   50.97
  -9  -9  14 1246.08   57.96
   9  -9 -12  999.79   41.98
   9   9 -12 1000.81   41.71
   9  -9 -12  961.85   32.09
   9   9 -12 1046.41   46.10
  -9   9  12  997.58   38.29
  -9   9  12  934.70   39.03
  -9   9  12  923.20   44.04
  -9  -9  12 1002.20   49.96
   9  -9 -10  535.15   30.08
   9   9 -10  592.36   31.07
  -9   9  10  560.29   30.44
   9  -9 -10  643.79   25.16
   9   9 -10  621.28   34.59
  -9   9  10  561.63   31.07
  -9   9  10  649.96   34.96
   9  -9 -10  578.20   32.59
  -9  -9  10  683.17   38.99
   9  -9  -8  717.75   35.41
   9   9  -8  738.94   35.69
  -9   9   8  666.58   30.33
  -9   9   8  704.86   36.58
   9  -9  -8  722.03   29.35
   9   9  -8  771.25   39.50
   9  -9  -8  733.17   37.29
  -9   9   8  665.09   35.81
  -9   9   8  745.19   36.73
  -9  -9   8  785.47   41.31
  -9  -9   6 1669.69   58.56
  -9   9   6 1677.09   57.79
  -9   9   6 1716.22   46.15
   9   9  -6 1720.75   64.55
  -9   9   6 1766.31   63.92
  -9   9   6 1734.69   63.11
  -9   9   6 1735.15   57.97
   9  -9  -6 1757.93   63.23
  -9  -9   6 1880.53   67.03
  -9  -9   4  635.03   34.88
  -9   9   4  656.44   35.19
  -9   9   4  598.23   36.80
  -9   9   4  652.58   31.42
   9   9  -4  653.79   39.02
  -9   9   4  643.30   37.65
   9  -9  -4  650.58   38.71
  -9  -9   4  677.35   38.71
  -9  -9   2  744.94   41.17
  -9   9   2  764.17   40.95
   9   9  -2  791.88   44.17
   9  -9  -2  791.69   43.60
  -9   9   2  798.55   44.48
   9   9  -2  848.10   47.51
  -9   9   2  779.45   43.72
   9  -9  -2  724.84   44.24
  -9  -9   2  803.51   43.16
  -9  -9   0  554.50   37.78
   9  -9   0  566.00   39.59
   9  10 -19   -7.57    8.89
   9 -10 -19   -1.89    7.55
   9 -10 -17    8.29    8.34
  -9 -10  17    5.07    8.19
  -9  10  17    7.04    6.20
   9  10 -17    8.26    8.32
   9 -10 -17    9.80    6.13
   9  10 -17    8.00    7.60
  -9 -10  15  108.69   17.61
   9  10 -15   94.81   15.23
  -9  10  15   65.36   12.58
   9  10 -15   97.28   14.01
   9 -10 -15   78.02   13.26
   9  10 -13   66.94   11.27
   9 -10 -13   87.28   12.70
  -9 -10  13   57.79   12.29
   9 -10 -13   71.89    9.94
  -9  10  13   61.78    8.98
   9  10 -13   66.66   14.12
  -9  10  13   86.21   11.59
  -9  10  13   52.41   11.70
  -9 -10  13   75.22   15.33
  -9  10  11   18.46    6.78
   9 -10 -11   20.56    7.51
   9  10 -11   21.43    7.49
   9 -10 -11   25.04    5.16
   9  10 -11   20.72    9.02
  -9  10  11   26.82    8.72
  -9  10  11   18.34    6.68
  -9 -10  11   16.63    8.37
  -9  10   9   27.51    7.91
  -9  10   9   13.98    5.86
   9 -10  -9   24.39    7.78
   9  10  -9   32.68    8.87
   9 -10  -9   27.59    6.10
   9  10  -9   25.58    8.97
  -9  10   9   31.17    9.09
  -9  10   9   19.35    7.10
   9 -10  -9    7.25    7.21
  -9 -10   9   30.26    9.26
  -9  10   7  133.92   16.64
  -9  10   7  136.10   12.86
   9 -10  -7  149.62   13.58
   9  10  -7  159.42   19.03
   9 -10  -7  188.14   19.62
  -9 -10   7  158.28   19.15
  -9  10   7  144.89   17.43
  -9  10   7  149.44   16.25
   9 -10  -7  165.48   16.88
   9  10  -7  139.29   16.50
  -9 -10   7  139.62   15.43
  -9  10   7  158.61   15.87
  -9 -10   5   11.01    6.75
  -9  10   5   21.38    8.01
  -9  10   5    6.32    7.86
   9  10  -5    8.52    7.89
  -9  10   5    0.67    4.99
  -9  10   5   16.68    7.81
  -9 -10   5   15.62    9.03
   9 -10  -5   -1.97    8.47
   9  10  -3  174.64   20.34
   9 -10  -3  142.86   18.11
  -9 -10   3  168.60   19.30
  -9  10   3  155.98   17.69
  -9  10   3  178.86   20.59
   9  10  -3  215.18   24.04
  -9  10   3  179.14   15.89
  -9  10   3  205.91   22.42
  -9 -10   3  182.91   21.07
   9 -10  -3  182.07   22.45
   9 -10  -1   60.41   15.10
   9  10  -1   43.79   13.62
  -9 -10   1   35.03   11.24
  -9  10   1   23.67    9.68
  -9  10   1   39.54   12.50
   9  10  -1   19.35   11.34
   9 -10  -1   22.55    9.77
   9  11 -18  897.84   46.49
   9 -11 -18  857.25   45.87
  -9  11  18  821.61   43.48
  -9 -11  16  590.79   40.58
   9  11 -16  611.59   39.34
  -9  11  16  622.41   37.43
   9  11 -16  626.87   35.80
   9 -11 -16  636.96   36.14
  -9 -11  14  693.89   38.66
  -9 -11  14  716.20   44.06
   9  11 -14  740.05   40.92
  -9  11  14  694.46   38.65
   9  11 -14  689.07   35.36
   9 -11 -14  771.69   37.44
   9 -11 -12 1596.05   55.27
   9  11 -12 1628.29   55.46
  -9  11  12 1624.48   52.91
  -9 -11  12 1634.19   62.57
   9  11 -12 1528.58   60.51
  -9  11  12 1734.11   56.07
  -9  11  12 1511.92   59.45
  -9 -11  12 1735.70   68.35
   9 -11 -10  815.00   37.15
   9  11 -10  762.71   35.87
  -9  11  10  775.79   36.85
  -9 -11  10  817.65   43.33
   9  11 -10  806.88   41.15
  -9 -11  10  801.43   43.76
  -9  11  10  786.05   38.17
  -9  11  10  888.63   41.81
   9 -11 -10  823.93   42.50
  -9  11  10  841.32   38.34
   9 -11  -8  945.85   41.11
   9  11  -8  972.80   41.50
  -9  11   8  917.38   36.52
   9  11  -8  993.44   46.66
  -9  11   8  890.13   42.22
   9 -11  -8  933.10   45.42
  -9  11   8  882.75   42.64
  -9  11   8  936.79   42.65
  -9 -11   8  983.02   48.39
  -9 -11   6 1262.16   48.93
  -9  11   6 1207.90   47.10
   9 -11  -6 1243.99   49.81
  -9  11   6 1217.29   52.86
   9  11  -6 1253.12   54.97
   9 -11  -6 1345.39   43.75
  -9  11   6 1275.93   49.42
  -9  11   6 1229.83   53.20
   9 -11  -6 1212.96   54.56
  -9 -11   6 1297.56   56.90
  -9 -11   4  539.47   31.98
  -9  11   4  536.62   31.69
   9  11  -4  511.43   31.81
  -9  11   4  523.02   35.28
   9  11  -4  582.14   37.88
  -9  11   4  522.51   29.33
   9 -11  -4  549.89   37.86
  -9  11   4  532.94   35.09
  -9 -11   4  642.65   39.21
  -9 -11   2  422.19   30.53
  -9  11   2  454.93   31.19
   9  11  -2  445.68   32.94
   9 -11  -2  393.02   30.60
   9  11  -2  480.97   36.64
  -9  11   2  408.29   32.51
   9 -11  -2  423.64   35.01
  -9 -11   2  456.32   33.62
  -9  11   2  427.77   33.14
   9  12 -19   24.30   11.71
   9 -12 -19    6.75    9.21
  -9 -12  17   -1.43    7.08
   9 -12 -17  -11.88   10.64
  -9  12  17  -11.47    9.70
   9  12 -17   23.81   11.24
  -9  12  17   18.62   10.43
   9  12 -17   18.77    9.51
   9 -12 -17   -2.44    7.27
  -9 -12  15    1.54    6.98
  -9 -12  15    4.97    8.02
   9  12 -15   25.68   10.80
  -9  12  15   14.39    8.92
   9  12 -15   13.27    7.10
   9 -12 -15   13.15    7.92
   9  12 -13   18.69    7.80
   9 -12 -13   -5.64    6.74
  -9  12  13   13.52    6.37
   9 -12 -13   15.85    6.91
  -9 -12  13   10.44    8.38
  -9  12  13   27.29   10.22
   9  12 -13   13.54    8.97
  -9  12  13   18.55    8.95
  -9  12  13   15.93    5.99
  -9 -12  13    3.16    7.20
   9 -12 -11    4.68    6.14
   9  12 -11   -0.74    5.59
  -9  12  11    3.95    5.34
  -9 -12  11    1.83    7.05
  -9  12  11   17.31    8.12
   9  12 -11    9.26    7.85
  -9  12  11   19.93    9.89
  -9  12  11   16.08    7.10
  -9 -12  11   14.02    8.67
   9 -12  -9   46.41   10.09
   9  12  -9   54.35   10.01
  -9  12   9   32.11    8.71
  -9 -12   9   53.21   12.32
  -9  12   9   53.52    9.73
   9  12  -9   39.72   10.94
  -9  12   9   52.87   11.35
  -9  12   9   45.62   10.63
   9 -12  -9   36.12    9.92
  -9 -12   9   54.33   13.04
  -9  12   7   -0.29    5.82
  -9  12   7   19.21    6.21
  -9 -12   7   12.86    6.27
  -9  12   7   19.20    6.71
   9 -12  -7   17.55    6.76
   9  12  -7   24.92    8.21
   9  12  -7    9.21    7.60
  -9  12   7    8.09    6.58
  -9  12   7    7.66    7.10
   9 -12  -7    5.39    8.51
  -9  12   5   17.43    9.26
   9  12  -5    7.46    6.80
  -9 -12   5    2.10    5.26
  -9  12   5    1.39    5.00
   9  12  -5    7.04    8.39
  -9  12   5    2.28    6.45
  -9  12   5   -8.00    5.69
  -9 -12   5    9.26    8.29
   9 -12  -5   -7.08    7.03
  -9  12   3   19.33   11.38
   9  12  -3   15.69    8.26
   9  12  -3    7.52    8.47
  -9  12   3    8.80    7.79
  -9 -12   3   10.89    7.80
   9 -12  -3    1.02    8.11
  -9  12   3   24.97    9.38
  -9 -12   3   11.58    7.70
  -9 -12   1   34.38   11.67
   9  12  -1   15.45   10.67
   9 -12  -1   -2.89    7.39
  -9 -12   1   13.24    8.13
  -9  12   1   12.57    7.98
  -9  13  18  854.11   45.66
  -9 -13  16  638.65   38.49
  -9  13  16  682.45   43.33
  -9  13  16  685.77   40.40
   9  13 -16  745.99   44.30
  -9 -13  16  690.53   45.50
   9  13 -16  782.13   39.94
   9 -13 -16  655.26   36.83
  -9 -13  14  876.58   45.85
  -9  13  14  902.11   47.47
   9  13 -14  842.55   45.36
  -9  13  14  908.76   46.04
  -9 -13  14 1040.43   54.32
   9  13 -14  873.65   40.28
   9 -13 -14  852.99   39.84
   9  13 -12 1339.21   48.91
   9 -13 -12 1370.46   50.01
   9 -13 -12 1292.10   50.92
  -9  13  12 1350.09   48.84
  -9 -13  12 1279.56   57.30
  -9  13  12 1340.69   55.45
  -9  13  12 1278.21   55.19
   9  13 -12 1323.21   56.69
  -9  13  12 1390.68   50.53
  -9 -13  12 1551.93   65.18
   9 -13 -10  654.72   32.72
   9  13 -10  638.11   31.91
  -9  13  10  652.13   34.87
  -9 -13  10  626.76   39.72
  -9  13  10  707.16   35.47
   9  13 -10  647.23   37.69
  -9  13  10  720.37   38.91
  -9  13  10  697.42   36.23
  -9 -13  10  680.07   41.31
   9 -13  -8  669.99   34.01
   9  13  -8  731.41   35.06
  -9 -13   8  643.55   33.03
  -9  13   8  690.31   32.98
  -9  13   8  706.01   38.32
  -9 -13   8  678.64   42.06
  -9  13   8  626.78   35.49
   9  13  -8  655.52   38.78
  -9 -13   8  767.83   43.87
  -9  13   8  717.35   39.08
   9 -13  -8  632.69   39.56
  -9  13   8  690.73   32.68
  -9 -13   6  893.60   39.60
  -9  13   6  877.54   38.62
   9 -13  -6  891.81   41.26
   9  13  -6  845.55   40.35
   9  13  -6  819.68   43.48
  -9  13   6  879.51   45.58
   9  13  -6  856.44   46.20
  -9  13   6  921.87   42.38
   9 -13  -6  965.82   50.46
  -9  13   6  832.02   44.54
  -9 -13   6  975.27   50.30
  -9 -13   4  240.12   21.49
  -9  13   4  281.31   22.50
  -9  13   4  253.09   25.31
   9  13  -4  256.35   23.74
   9  13  -4  295.09   27.25
  -9  13   4  229.64   20.36
  -9 -13   4  273.83   27.30
  -9  13   4  236.98   24.46
   9 -13  -4  340.83   31.55
  -9 -13   2  379.11   32.54
   9  13  -2  467.42   36.55
  -9  14  17   14.38    9.35
  -9 -14  17   -4.29    9.50
  -9 -14  15   68.85   14.15
  -9  14  15   56.79   14.52
   9  14 -15   63.86   15.40
  -9  14  15   38.92   11.05
  -9 -14  15   41.31   11.52
   9 -14 -13  121.63   15.64
  -9 -14  13  128.90   18.28
  -9  14  13  103.55   16.29
   9  14 -13  142.43   19.41
  -9  14  13  115.39   17.10
  -9 -14  13  150.83   21.16
  -9  14  11    8.09    6.45
  -9 -14  11   14.64   11.43
  -9  14  11    2.41    8.46
   9  14 -11    9.25    6.48
  -9  14  11   -5.46    6.83
  -9  14  11   -8.19    6.45
  -9 -14  11   -2.54    7.66
  -9  14   9  151.66   17.63
  -9 -14   9  164.72   21.62
   9  14  -9  146.47   18.43
  -9  14   9  166.74   17.10
  -9  14   9  135.53   16.79
  -9  14   9  143.16   17.93
  -9 -14   9  166.43   21.38
   9 -14  -9  145.22   20.07
  -9  14   7  345.29   28.01
   9  14  -7  387.37   29.98
  -9  14   7  437.06   29.71
   9  14  -7  417.34   31.08
   9 -14  -7  366.54   31.03
  -9  14   7  396.12   30.10
  -9  14   5   54.93   11.80
   9  14  -5   33.90    9.77
  -9  14   5   45.77   12.78
  -9  14   5   38.29    9.59
  -9 -14   5   53.89   13.28
   9 -14  -5   28.80   11.48
   9  14  -5   21.76   10.36
   9  14  -3   59.61   14.11
  -9 -14   3   61.26   14.08
   9  14  -3   37.42   10.76
  -9 -15  16  168.34   20.96
  -9 -15  16  215.28   26.25
  -9  15  14  438.05   32.93
   9  15 -14  408.91   32.15
  -9  15  14  376.93   30.92
  -9 -15  14  422.74   33.05
  -9 -15  14  380.45   33.66
   9 -15 -12  578.97   35.05
  -9  15  12  629.47   32.80
  -9 -15  12  634.60   40.40
  -9  15  12  609.39   36.82
  -9  15  12  678.76   39.64
   9  15 -12  615.80   38.21
  -9  15  12  529.49   30.89
  -9 -15  12  558.25   39.57
  -9  15  10  390.36   27.82
  -9 -15  10  381.16   32.08
  -9  15  10  372.74   27.07
  -9  15  10  384.08   29.56
   9  15 -10  397.72   30.31
  -9  15  10  379.81   27.44
  -9 -15  10  422.87   34.30
  -9  15   8  483.29   32.68
  -9 -15   8  465.17   36.60
   9  15  -8  474.03   33.17
  -9  15   8  510.18   32.82
  -9  15   8  464.86   27.60
  -9  15   8  507.38   33.76
   9 -15  -8  514.46   37.84
  -9 -15   8  524.58   37.75
  -9  15   6  679.95   40.84
   9  15  -6  662.26   40.29
   9 -15  -6  599.45   42.03
  -9  15   6  604.85   38.80
  -9 -15   6  679.95   44.04
  -9  15   6  612.39   35.84
   9  15  -6  619.60   39.85
  -9  15   4  258.31   22.41
   9  15  -4  225.41   25.22
   9  15  -4  230.11   23.35
  -9 -15   4  216.88   25.46
   9  16 -15    5.09    9.08
  -9 -16  15   12.31    9.36
  -9 -16  15    7.88    9.49
  -9 -16  13   98.23   16.85
  -9  16  13   63.90   14.25
   9  16 -13  139.25   18.81
  -9  16  13   95.03   15.94
  -9 -16  13  118.36   20.07
   9 -16 -11   -4.76    6.13
  -9  16  11   18.25    8.96
  -9 -16  11    7.89    8.46
  -9  16  11  -10.11    7.63
   9  16 -11   -6.11    7.74
  -9  16  11    1.54    5.59
  -9  16  11   15.49   10.32
  -9 -16  11   16.42   10.48
  -9  16   9   44.04   10.54
  -9 -16   9   41.64   12.59
  -9  16   9   54.20   11.65
   9  16  -9   78.76   14.55
  -9  16   9   70.97   13.33
   9 -16  -9   63.02   15.38
  -9  16   9   78.15   14.84
  -9 -16   9   58.09   14.56
  -9  16   7    4.86    8.48
  -9 -16   7   10.22   10.28
   9  16  -7   11.30    9.18
  -9  16   7   -3.08    8.30
  -9  16   7    1.93    6.83
  -9 -16   7   20.91   10.57
   9 -16  -7   12.51   10.09
   9  16  -7   -3.71    8.36
   9  16  -5   20.93   10.48
  -9  16   5    9.89    7.48
   9  16  -5   -0.59    7.56
   9  16  -3  -15.94   10.69
   9  17 -14  180.52   22.78
  -9 -17  14  195.49   25.67
  -9 -17  14  151.86   21.45
  -9 -17  12  468.82   36.58
  -9  17  12  531.60   35.42
   9  17 -12  477.94   34.06
   9 -17 -12  430.46   32.23
  -9 -17  12  483.58   38.50
  -9  17  10  208.77   21.71
  -9 -17  10  215.19   25.11
   9  17 -10  183.12   21.09
  -9  17  10  206.89   20.98
  -9  17  10  199.91   21.49
  -9  17  10  203.75   22.13
  -9 -17  10  174.99   23.69
  -9  17   8  525.06   31.40
   9  17  -8  642.09   42.78
  -9  17   8  561.58   37.14
   9 -17  -8  647.50   44.98
  -9  17   8  578.58   37.58
  -9  17   8  589.87   37.63
   9  17  -8  597.41   38.85
   9  17  -6  676.95   43.40
  -9  17   6  609.99   37.65
   9  17  -6  661.14   41.88
  -9  17   4  424.66   30.41
   9  17  -4  414.67   34.52
   9  18 -13   12.34   10.10
  -9  18  11   26.46   10.31
  -9  18  11   21.08    8.21
   9 -18 -11   16.83    8.99
   9  18 -11   32.65   11.11
  -9  18   9    3.97    6.81
  -9  18   9   12.80    8.52
  -9  18   9    7.82    6.81
   9  18  -9   -0.96    7.72
   9  18  -7    6.71    8.44
   9 -19 -12  405.25   33.43
   9  19 -12  485.04   35.53
  -9  19  10  595.91   37.46
  -9  19  10  634.12   39.06
  -9  19  10  570.98   37.50
  10   0 -20  376.69   32.12
 -10   0  20  302.16   27.76
 -10   0  20  290.70   26.71
  10   0 -20  296.49   28.38
  10   0 -18  770.75   41.16
 -10   0  18  808.28   45.24
  10   0 -18  777.88   42.71
  10   0 -18  817.39   44.17
  10   0 -16 1308.19   51.90
 -10   0  16 1270.99   57.83
  10   0 -16 1310.03   51.95
  10   0 -16 1365.19   54.80
  10   0 -14  709.67   34.91
 -10   0  14  705.90   41.18
  10   0 -14  771.94   34.70
  10   0 -14  708.13   36.98
 -10   0  12 1198.67   53.63
  10   0 -12 1238.02   49.50
  10   0 -12 1202.89   46.54
 -10   0  10 2773.93   85.53
  10   0 -10 2595.26   78.11
  10   0 -10 2699.58   76.85
  10   0  -8 1145.94   34.83
  10   0  -8 1076.58   44.99
 -10   0   8 1167.40   50.29
 -10   0   6 2961.35   85.00
 -10   0   6 2576.07   81.70
  10   0  -4 1636.96   64.42
 -10   0   4 1816.01   61.64
 -10   0   4 1626.04   63.87
 -10   0   2  737.71   43.69
 -10   0   2  821.59   43.34
 -10   0   2  807.18   45.82
  10   0  -2  836.93   47.88
 -10   0   0 1624.86   64.56
 -10   0   0 1557.07   66.76
 -10  -1  21   10.68    6.86
 -10   1  21   24.68    9.94
  10   1 -19   -4.04    6.64
  10  -1 -19    9.38    8.89
 -10   1  19   14.43    7.73
 -10  -1  19   12.62    9.38
 -10   1  19   -1.09    7.21
 -10  -1  19    1.79    6.38
  10  -1 -19   15.23   10.25
  10   1 -19   -0.02    7.36
  10  -1 -17    0.37    7.02
  10   1 -17    7.35    6.65
  10   1 -17    6.61    7.10
  10  -1 -17    6.08    7.29
 -10   1  17    1.70    6.73
 -10  -1  17   10.23    7.44
  10   1 -17    0.99    5.68
  10  -1 -17    6.23    7.53
  10  -1 -15   70.83   11.89
  10   1 -15   59.77   10.69
  10   1 -15   47.23   10.72
  10  -1 -15   59.26   11.95
 -10  -1  15   64.78   14.01
 -10   1  15   54.13   12.85
  10   1 -15   64.77   10.91
  10  -1 -15   52.17   10.12
  10  -1 -13    0.44    4.84
  10   1 -13    5.13    5.30
  10  -1 -13   28.53    9.79
  10   1 -13   19.11    8.13
 -10  -1  13   26.03    8.81
 -10   1  13   10.44    3.50
 -10   1  13   29.27   10.51
  10   1 -13   14.44    5.82
  10   1 -11  253.55   20.59
  10  -1 -11  260.12   20.01
 -10   1  11  270.33   24.27
 -10  -1  11  259.56   24.60
  10  -1 -11  286.73   23.08
  10   1 -11  277.89   22.47
  10   1  -9  506.00   29.69
  10  -1  -9  520.10   29.46
 -10   1   9  551.24   33.60
 -10  -1   9  534.69   33.80
  10  -1  -9  517.93   21.54
  10   1  -9  523.19   18.07
  10  -1  -9  474.56   29.94
  10   1  -9  498.97   30.43
 -10   1   7   80.44   13.17
 -10  -1   7  103.83   15.26
  10  -1  -7   99.28   11.11
  10   1  -7   95.65    9.59
  10   1  -7  130.13   16.07
  10  -1  -7   83.97   12.85
 -10  -1   5    3.55    6.28
 -10   1   5   -4.54    7.51
 -10   1   5   -4.81    5.69
 -10  -1   5    8.34    6.09
  10   1  -5    0.27    7.06
  10  -1  -5    8.57    8.12
 -10   1   3   18.46    8.37
 -10   1   3   27.53    9.35
  10   1  -3   38.11   12.07
  10  -1  -3   61.07   14.32
 -10  -1   3   33.36   10.44
 -10   1   3   43.91   11.74
 -10  -1   1    2.79    6.34
 -10   1   1   24.70   10.15
 -10   1   1   22.06   10.39
 -10  -1   1    9.27    8.50
  10   2 -20  538.09   38.58
  10  -2 -20  542.04   39.04
 -10   2  20  571.39   37.19
 -10  -2  20  596.81   39.76
 -10  -2  20  590.90   38.81
  10   2 -20  562.68   39.17
  10  -2 -20  644.62   41.92
  10   2 -18 1046.00   49.28
  10  -2 -18 1140.48   52.74
 -10   2  18 1038.75   47.70
  10  -2 -18 1032.04   47.19
  10   2 -18 1035.80   49.42
 -10   2  18  985.63   51.25
 -10  -2  18 1057.30   52.62
  10   2 -18 1080.05   51.58
  10  -2 -18 1053.21   51.01
  10  -2 -16 1394.98   52.41
  10   2 -16 1455.72   56.08
 -10   2  16 1392.02   60.66
 -10  -2  16 1479.07   62.83
  10   2 -16 1386.55   52.64
  10  -2 -16 1461.20   56.07
  10   2 -16 1533.07   58.70
  10  -2 -16 1409.60   56.56
  10  -2 -14  671.00   33.24
  10   2 -14  724.96   36.23
 -10  -2  14  735.34   42.04
 -10   2  14  708.91   40.91
  10   2 -14  680.48   31.56
  10  -2 -14  745.62   37.83
  10   2 -14  690.65   36.60
  10  -2 -12 2083.69   63.31
  10   2 -12 2176.17   67.65
 -10  -2  12 2200.30   75.99
 -10   2  12 2076.18   73.19
  10  -2 -12 2070.51   67.36
  10   2 -12 2117.06   68.00
  10   2 -12 2036.52   55.60
 -10  -2  10 2224.22   75.74
 -10   2  10 2143.14   72.61
  10  -2 -10 2185.94   54.69
  10  -2 -10 2075.84   68.11
  10   2 -10 2179.81   69.32
  10   2 -10 2171.54   68.24
  10  -2 -10 2149.03   65.07
  10  -2  -8 1116.48   37.70
  10   2  -8 1158.60   30.99
 -10   2   8 1090.31   47.61
 -10  -2   8 1104.83   49.97
  10   2  -8 1086.82   46.29
  10  -2  -8 1058.51   43.97
 -10   2   6 1317.16   51.59
 -10  -2   6 1363.01   55.66
  10   2  -6 1375.09   54.80
  10  -2  -6 1387.94   47.62
 -10  -2   6 1287.77   53.45
 -10   2   6 1368.32   54.57
  10   2  -4 1216.77   54.58
  10  -2  -4 1178.83   53.88
 -10   2   4 1171.82   54.19
 -10  -2   4 1145.08   49.91
 -10  -2   4 1097.51   51.32
 -10   2   4 1093.01   50.89
 -10   2   2  304.68   28.09
 -10   2   2  314.47   26.70
 -10  -2   2  344.34   29.13
 -10   2   2  259.24   25.70
  10   2  -2  346.69   30.57
  10  -2  -2  328.79   29.68
 -10   2   0  674.37   40.63
 -10  -2   0  623.46   40.99
 -10   3  21   41.41   12.55
  10   3 -21   25.56    9.46
  10   3 -19   13.38    8.83
  10  -3 -19   25.04   10.58
 -10   3  19    1.31    6.16
 -10  -3  19    2.21    7.94
  10   3 -19    3.91    7.96
  10   3 -19   12.17   10.52
  10  -3 -19    4.13    6.91
 -10  -3  19   12.48    8.18
  10  -3 -17   97.16   13.90
  10   3 -17  115.03   16.73
  10   3 -17   87.60   14.30
  10  -3 -17   95.64   15.72
  10   3 -17   91.66   13.62
  10  -3 -17   73.74   13.82
 -10   3  17   86.01   16.10
 -10  -3  17   94.74   16.73
  10  -3 -15  142.52   15.40
  10   3 -15  183.50   18.71
  10   3 -15  162.13   18.14
  10  -3 -15  153.72   17.61
  10  -3 -15  190.42   19.28
  10   3 -15  188.50   16.88
 -10  -3  15  177.93   21.38
 -10   3  15  153.24   19.62
  10  -3 -13    2.84    4.96
  10   3 -13    4.74    6.71
  10  -3 -13   -7.64    6.02
  10   3 -13   10.68    6.14
  10   3 -13    4.15    4.47
 -10  -3  13    3.52    8.20
 -10   3  13   11.26    7.82
  10   3 -11   70.31   11.80
  10  -3 -11   51.01    9.41
  10  -3 -11   57.25   10.91
  10   3 -11   63.46   11.74
  10   3 -11   58.57    7.06
 -10  -3  11   63.09   12.74
 -10   3  11   51.50   10.85
  10   3  -9  146.48   16.46
  10  -3  -9  159.73   15.76
 -10  -3   9  136.02   17.32
 -10   3   9  168.61   18.37
  10  -3  -9  166.38   13.44
  10  -3  -9  139.08   15.83
  10   3  -9  145.35   17.22
  10  -3  -7   12.39    6.63
 -10  -3   7    3.13    6.17
  10  -3  -7   14.65    6.38
 -10   3   7   10.28    6.48
 -10  -3   5  118.49   16.10
 -10   3   5   89.14   14.61
 -10   3   5   98.09   16.42
 -10  -3   5  130.09   17.48
  10  -3  -5  121.87   14.73
 -10   3   5   77.24   12.02
  10   3  -5  121.89   16.73
  10  -3  -5  102.71   15.55
 -10   3   3   20.45    8.94
 -10   3   3   22.38    9.61
  10   3  -3   12.20    8.23
  10  -3  -3   -5.77    7.44
 -10  -3   3    5.52    6.44
 -10   3   3    8.66    7.61
 -10   3   1   14.10    8.42
 -10  -3   1    1.71    6.77
 -10   3   1   -2.46    7.59
 -10  -4  20  839.90   46.56
  10   4 -20  809.13   47.36
  10  -4 -20  867.13   50.44
 -10   4  20  801.62   43.62
 -10  -4  20  793.44   46.99
 -10   4  20  724.31   41.54
  10   4 -20  810.92   46.91
  10  -4 -20  817.29   47.22
  10   4 -18  929.93   45.92
  10  -4 -18  924.53   48.79
 -10   4  18  949.18   44.01
  10   4 -18  962.19   48.61
  10   4 -18 1006.84   49.62
  10  -4 -18  969.15   48.84
 -10   4  18  890.64   48.83
 -10  -4  18  976.59   51.00
  10  -4 -16 1206.61   52.08
  10   4 -16 1150.85   46.01
 -10   4  16 1112.33   38.81
  10  -4 -16 1151.04   45.49
  10   4 -16 1184.21   50.85
 -10  -4  16 1208.09   56.36
 -10   4  16 1202.19   55.43
  10   4 -16 1178.49   51.01
  10  -4 -16 1123.79   50.02
  10  -4 -14 1530.76   50.99
  10   4 -14 1488.10   56.40
  10   4 -14 1551.42   48.32
 -10  -4  14 1539.46   64.34
 -10   4  14 1517.12   62.03
  10  -4 -14 1525.84   56.81
  10   4 -14 1461.15   56.00
  10  -4 -12 2087.41   60.85
  10   4 -12 1966.36   65.90
  10   4 -12 1997.59   50.90
 -10  -4  12 2095.11   75.24
 -10   4  12 1984.63   71.01
  10  -4 -12 1993.30   65.87
  10   4 -12 2052.65   66.52
 -10  -4  10 1008.50   48.91
 -10   4  10  922.10   44.33
  10  -4 -10  954.30   38.96
  10   4 -10 1010.69   44.34
  10   4 -10  975.66   27.47
  10  -4 -10  954.93   35.67
  10  -4 -10 1084.73   45.30
  10   4 -10 1058.97   45.09
  10  -4  -8  428.46   23.96
  10   4  -8  377.55   26.99
  10  -4  -8  414.88   25.38
 -10  -4   8  381.11   29.22
 -10   4   8  372.15   26.17
 -10  -4   6  980.20   45.75
 -10   4   6 1053.79   47.14
 -10   4   6  935.79   47.28
  10   4  -6 1057.09   48.46
  10  -4  -6 1139.21   44.33
 -10  -4   6  958.74   46.73
 -10   4   6 1041.37   43.33
 -10  -4   4  503.53   33.50
 -10   4   4  531.95   34.36
  10   4  -4  538.44   35.53
  10  -4  -4  508.78   34.36
 -10   4   4  521.02   35.50
 -10   4   4  503.38   33.50
 -10   4   4  518.40   27.12
 -10  -4   4  573.89   34.88
 -10   4   2  390.47   31.39
 -10   4   2  458.63   33.26
 -10  -4   2  436.59   33.83
 -10   4   2  452.94   34.19
  10   4  -2  408.82   33.20
  10  -4  -2  415.67   33.25
 -10  -4   0  342.24   29.83
 -10   5  21    0.28    6.86
  10   5 -21    0.64    8.22
 -10  -5  19  155.20   20.53
  10   5 -19  169.66   21.00
  10  -5 -19  156.82   21.51
 -10   5  19   99.01   14.86
 -10  -5  19  150.60   19.92
  10   5 -19  127.46   19.47
 -10   5  19  160.17   19.73
  10   5 -19  164.10   20.66
  10  -5 -19  124.59   18.39
  10   5 -17   50.69   10.27
  10  -5 -17   62.67   13.61
 -10   5  17   55.61   10.09
  10  -5 -17   72.74   12.15
  10   5 -17   58.77   12.56
 -10  -5  17   54.53   12.65
 -10   5  17   48.34   11.58
  10   5 -17   51.19   12.19
  10  -5 -17   77.55   14.51
  10   5 -15   21.79    7.40
  10   5 -15   14.66    7.52
  10  -5 -15   14.45    7.55
  10  -5 -15   16.28    6.51
  10   5 -15   15.62    8.34
 -10   5  15   10.60    5.55
 -10  -5  15   26.28   11.63
 -10   5  15   29.68   10.85
 -10   5  13  191.15   17.27
  10   5 -13  211.59   14.13
  10  -5 -13  178.08   18.32
  10   5 -13  195.92   19.33
  10  -5 -13  206.93   16.66
  10   5 -13  212.86   19.65
 -10  -5  13  197.78   22.27
 -10   5  13  182.42   20.65
  10  -5 -11   46.88    8.87
  10   5 -11   61.69   11.97
  10  -5 -11   49.75   10.70
  10   5 -11   43.35   10.58
 -10  -5  11   39.29   11.03
 -10   5  11   58.71   12.31
  10   5 -11   42.02    4.90
  10   5  -9   15.03    7.23
  10  -5  -9   -0.69    4.66
 -10   5   9   22.46    9.71
  10  -5  -9    0.47    5.97
  10   5  -9    8.84    7.19
 -10  -5   9   -1.62    7.04
  10  -5  -9   10.52    4.97
 -10   5   9    1.22    5.60
  10   5  -7   91.47   14.33
  10  -5  -7  124.27   14.73
 -10   5   7  128.73   17.45
 -10  -5   7  124.15   16.79
  10  -5  -7  115.88   13.43
 -10   5   7  130.52   15.16
 -10  -5   7  129.35   15.96
 -10   5   7   98.76   14.03
  10   5  -5   -4.98    7.29
  10  -5  -5    6.65    7.04
 -10  -5   5    5.18    7.58
 -10   5   5    4.43    6.09
 -10   5   5    3.89    7.56
  10   5  -5    3.18    8.13
 -10   5   5    6.89    4.99
 -10   5   5   -8.63    8.67
 -10  -5   5    1.59    8.75
  10  -5  -5    7.01    7.65
 -10   5   5    1.56    4.29
 -10   5   3    0.15    7.25
  10   5  -3   18.89    9.46
  10  -5  -3   -5.42    8.99
 -10   5   3   11.79    8.85
 -10  -5   3    2.14    6.59
 -10   5   3    6.14    7.80
 -10   5   1  109.05   17.29
 -10  -6  20  455.25   34.48
  10   6 -20  469.13   36.05
 -10   6  20  478.94   33.13
  10   6 -20  515.24   37.71
  10  -6 -20  571.14   39.37
 -10  -6  18 1236.79   58.31
  10   6 -18 1073.74   49.73
  10  -6 -18 1182.23   56.90
 -10   6  18 1128.03   47.66
  10   6 -18 1181.33   55.62
 -10   6  18 1015.50   50.18
  10   6 -18 1322.31   56.66
  10  -6 -18 1174.70   54.03
  10  -6 -16 1609.23   63.63
  10   6 -16 1530.91   53.85
 -10   6  16 1572.33   53.30
  10  -6 -16 1553.29   52.85
  10   6 -16 1522.89   60.85
  10   6 -16 1605.44   60.68
  10  -6 -16 1501.22   59.10
 -10  -6  16 1589.71   67.29
  10   6 -14  879.55   33.24
 -10   6  14  928.32   37.35
  10  -6 -14  897.21   36.15
  10   6 -14  909.71   43.72
  10  -6 -14  908.12   42.36
  10   6 -14  922.82   42.58
 -10  -6  14  959.51   50.06
 -10   6  14  946.23   47.77
  10   6 -12 1116.16   30.99
  10  -6 -12 1204.56   41.77
  10   6 -12 1236.28   50.57
 -10   6  12 1166.78   45.74
 -10  -6  12 1209.21   55.85
 -10   6  12 1069.83   50.03
  10  -6 -12 1268.68   49.69
  10   6 -12 1201.58   48.75
  10  -6 -10 1197.59   48.81
  10   6 -10 1163.64   48.32
  10   6 -10 1168.78   49.63
  10  -6 -10 1271.55   43.83
 -10   6  10 1210.33   49.36
  10  -6 -10 1170.95   44.06
 -10  -6  10 1234.69   55.13
 -10   6  10 1122.42   49.21
  10  -6  -8 1568.76   57.61
  10   6  -8 1510.30   56.43
  10   6  -8 1428.28   57.27
  10  -6  -8 1508.20   51.29
 -10   6   8 1384.65   56.59
  10  -6  -8 1537.92   52.84
 -10  -6   8 1589.44   62.29
 -10   6   8 1343.19   52.82
 -10  -6   6 1327.89   53.73
 -10   6   6 1247.23   52.12
 -10   6   6 1262.56   55.98
  10   6  -6 1382.23   56.99
 -10   6   6 1280.95   54.73
  10  -6  -6 1295.92   51.47
 -10   6   6 1253.38   48.19
 -10  -6   6 1448.86   58.68
 -10   6   6 1268.18   47.39
 -10  -6   4  607.83   36.97
 -10   6   4  601.42   36.61
  10   6  -4  614.51   38.38
  10  -6  -4  605.45   38.12
 -10   6   4  545.03   37.39
  10   6  -4  664.92   40.43
 -10   6   4  601.00   37.74
  10  -6  -4  656.15   38.18
 -10  -6   4  681.18   39.28
 -10   6   2  394.48   32.90
 -10   6   2  391.75   31.26
 -10  -6   2  386.45   31.75
 -10   6   2  492.30   35.13
  10   6  -2  445.04   34.71
  10  -6  -2  449.27   34.46
  10   7 -21    4.72    8.97
 -10  -7  19   11.41    9.44
  10   7 -19    9.69    6.86
  10  -7 -19   21.49   11.20
  10   7 -19   18.95   10.62
 -10   7  19   18.32    8.88
  10   7 -19   25.82   11.83
  10  -7 -19   30.29   11.80
 -10  -7  17   41.40   11.22
  10   7 -17   37.80    9.17
  10  -7 -17   50.70   12.20
 -10   7  17   46.07    9.63
  10   7 -17   45.37   11.52
 -10   7  17   27.01    9.73
  10   7 -17   58.23   12.46
  10  -7 -17   55.32   12.53
  10   7 -15   10.99    5.43
  10  -7 -15    9.83    5.40
 -10   7  15    0.50    4.31
  10   7 -15   -5.87    7.22
  10  -7 -15    0.08    6.57
 -10  -7  15   -2.50    7.64
  10   7 -13  151.73   18.28
  10  -7 -13  165.75   14.25
 -10   7  13  152.42   15.31
  10  -7 -13  135.40   15.79
  10   7 -13  144.40   16.83
 -10  -7  13  140.11   19.88
 -10   7  13  174.28   20.19
  10  -7 -11   68.84    9.64
  10   7 -11   80.66   13.63
 -10   7  11   93.36   14.06
 -10  -7  11   96.93   16.55
 -10   7  11   80.21   13.82
  10  -7 -11   82.36   13.28
  10   7 -11  104.16   14.42
  10  -7  -9   -2.69    5.40
  10   7  -9   -6.85    5.88
 -10   7   9   12.99    8.27
  10   7  -9    2.17    6.33
  10  -7  -9   -0.93    4.66
 -10   7   9   -3.99    6.30
  10  -7  -9    4.64    5.03
 -10  -7   9  -11.24    8.94
 -10   7   9    7.53    6.84
 -10  -7   7  315.44   24.45
 -10   7   7  341.84   25.50
 -10   7   7  319.74   26.14
  10   7  -7  346.62   27.28
  10  -7  -7  334.71   22.91
 -10   7   7  292.97   24.99
 -10   7   7  365.55   25.10
  10  -7  -7  373.17   25.89
 -10  -7   7  352.01   28.04
 -10   7   7  328.05   23.38
 -10  -7   5    8.94    6.27
 -10   7   5   18.99    9.15
 -10   7   5   19.21    8.79
  10   7  -5   10.65    7.39
 -10   7   5   14.87    6.19
 -10   7   5   13.53    8.22
  10  -7  -5   11.53    8.03
 -10  -7   5   25.72    9.21
  10   7  -3   39.11   11.31
  10  -7  -3   24.18    9.48
 -10   7   3   57.59   13.70
 -10  -7   3   30.59   11.30
 -10   7   3   23.02    8.76
 -10   7   3   33.67   11.50
 -10  -7   3   50.01   12.24
  10  -7  -3   53.56   12.97
 -10   8  20  358.53   28.88
  10  -8 -18  547.21   39.17
  10   8 -18  513.73   33.44
  10   8 -18  558.57   37.85
 -10  -8  18  563.31   39.44
 -10   8  18  517.55   35.44
  10   8 -18  554.67   36.26
  10  -8 -18  548.70   36.01
  10   8 -16  551.16   35.92
 -10  -8  16  532.39   38.81
 -10   8  16  553.14   35.68
  10   8 -16  542.13   33.59
  10  -8 -16  559.16   34.40
  10   8 -14  997.85   44.49
  10  -8 -14  941.58   43.50
  10  -8 -14  973.76   36.20
  10   8 -14 1014.32   47.42
 -10   8  14 1035.07   39.45
 -10   8  14 1004.14   47.68
 -10  -8  14 1046.41   53.81
  10  -8 -12  990.52   43.56
  10   8 -12 1010.77   44.01
  10  -8 -12  957.67   35.00
  10   8 -12 1013.74   46.54
 -10   8  12  962.82   42.00
 -10   8  12  995.32   46.88
 -10  -8  12  958.50   50.35
  10  -8 -10  790.10   38.84
  10   8 -10  753.80   38.07
  10   8 -10  839.43   41.98
  10  -8 -10  815.35   32.81
 -10   8  10  740.61   38.15
 -10   8  10  727.17   38.51
 -10   8  10  744.62   39.00
  10  -8 -10  789.14   37.95
 -10  -8  10  831.22   45.12
 -10   8  10  756.97   39.38
  10  -8  -8 1471.11   56.42
  10   8  -8 1577.02   58.45
  10   8  -8 1526.44   60.74
  10  -8  -8 1542.06   50.76
 -10   8   8 1481.70   58.38
 -10   8   8 1533.14   59.55
  10  -8  -8 1629.65   57.86
 -10   8   8 1440.47   55.38
 -10  -8   8 1546.04   63.07
 -10  -8   6  864.95   43.09
 -10   8   6  972.92   44.66
 -10   8   6  930.77   46.75
  10   8  -6  875.83   46.39
  10  -8  -6  992.52   46.12
 -10   8   6  922.59   46.37
 -10   8   6  953.09   41.50
 -10  -8   6  925.78   47.36
 -10  -8   4  802.38   43.42
 -10   8   4  832.16   43.67
  10   8  -4  855.93   46.18
  10  -8  -4  936.93   47.57
 -10   8   4  879.47   47.62
  10   8  -4  917.60   49.52
 -10   8   4  828.47   45.49
  10  -8  -4  892.61   47.25
 -10  -8   4  982.72   48.97
 -10   8   2 1002.92   52.25
  10  -8  -2 1022.24   54.63
 -10  -8   2 1005.94   51.79
 -10   8   2  967.57   50.73
  10   8  -2 1087.94   54.92
  10  -8  -2  912.76   51.05
  10   9 -19    7.43    9.51
  10  -9 -19    1.01    7.71
 -10   9  19    0.16    7.57
 -10  -9  19   10.59   10.19
  10  -9 -17   13.08    9.13
  10   9 -17   12.29    7.64
 -10  -9  17   11.90    8.18
 -10   9  17   -3.83    7.93
  10   9 -17    7.64    6.81
  10  -9 -17   11.52    8.43
  10   9 -15   10.09    9.35
 -10  -9  15   11.25    8.39
 -10   9  15    4.43    7.39
 -10   9  15    8.00    5.35
  10  -9 -15    0.28    7.14
  10   9 -15    3.43    6.62
  10  -9 -13   -3.04    6.04
  10   9 -13   11.27    6.09
 -10   9  13    4.46    5.16
  10  -9 -13    2.58    4.28
  10   9 -13   11.51    9.41
 -10   9  13   -8.51    8.70
 -10   9  13   -0.04    5.12
 -10  -9  13   -1.79    7.38
  10  -9 -11   33.57    9.51
  10   9 -11   24.64    8.11
 -10   9  11   35.18    9.11
  10  -9 -11   21.66    6.07
  10   9 -11   25.13    9.44
 -10   9  11   22.31    8.20
 -10   9  11   32.70    9.97
 -10  -9  11   22.57   10.96
  10  -9  -9  104.77   14.08
  10   9  -9  129.58   15.35
 -10   9   9   99.27   14.36
  10   9  -9  134.64   17.84
  10  -9  -9  100.26   11.80
 -10   9   9  118.21   15.37
 -10   9   9   92.42   13.95
  10  -9  -9   95.61   14.12
 -10  -9   9   97.50   15.53
 -10  -9   7   74.34   12.14
 -10   9   7   48.67   10.30
 -10   9   7   74.31   13.74
  10   9  -7   46.74   12.61
 -10   9   7   57.04   10.59
 -10   9   7   60.24   12.72
  10  -9  -7   66.39   13.53
 -10  -9   7   48.46   12.01
 -10  -9   5    3.70    6.40
 -10   9   5    4.14    6.83
 -10   9   5   11.20    9.56
  10   9  -5    6.42    7.52
 -10   9   5    6.03    5.65
 -10   9   5   10.51    8.20
  10  -9  -5   -2.51    7.14
 -10  -9   5   -0.75    8.49
  10   9  -3   21.06    9.99
  10  -9  -3   23.37   10.34
 -10   9   3    9.01    9.73
 -10  -9   3   24.63    9.70
 -10   9   3   39.80   11.28
  10   9  -3   30.41   12.96
  10  -9  -3   20.86    9.83
 -10  -9   3   42.33   11.74
 -10   9   3   31.16   11.77
 -10  10  20  715.72   42.11
  10 -10 -18  484.46   38.34
  10  10 -18  474.13   35.81
 -10 -10  18  393.11   34.10
 -10  10  18  444.09   33.22
  10  10 -18  474.52   33.82
  10 -10 -18  383.24   30.52
  10  10 -16  314.91   28.35
 -10 -10  16  322.79   31.04
 -10  10  16  333.12   28.16
  10  10 -16  321.06   26.03
  10 -10 -16  334.97   26.10
  10  10 -14 1314.71   52.03
  10 -10 -14 1316.87   52.14
  10  10 -14 1381.45   58.08
 -10  10  14 1338.77   46.60
 -10  10  14 1308.83   49.46
 -10  10  14 1318.45   56.77
 -10 -10  14 1345.97   63.27
  10 -10 -12  764.22   38.19
  10  10 -12  753.90   37.66
 -10  10  12  825.91   38.05
  10  10 -12  815.88   42.69
 -10  10  12  716.34   37.27
 -10  10  12  833.14   42.93
 -10 -10  12  776.88   45.82
  10 -10 -10  826.56   39.93
  10  10 -10  819.98   39.42
 -10  10  10  768.33   39.60
 -10  10  10  760.05   36.07
  10  10 -10  794.25   42.51
 -10  10  10  837.62   41.87
 -10  10  10  809.01   41.29
  10 -10 -10  847.67   42.18
 -10 -10  10  833.44   46.10
 -10  10   8 1045.71   48.87
 -10  10   8  975.03   37.51
  10  10  -8 1057.36   50.32
  10 -10  -8 1028.60   38.54
 -10 -10   8 1025.48   44.83
 -10  10   8 1029.00   44.47
  10 -10  -8  965.11   45.08
  10  10  -8 1011.04   45.82
  10 -10  -8 1105.68   49.61
 -10  10   8  959.61   47.36
 -10  10   8  986.14   45.25
 -10 -10   8 1041.49   51.86
 -10  10   6  506.61   35.14
  10  10  -6  567.79   37.31
 -10 -10   6  532.59   32.94
 -10  10   6  503.82   31.43
 -10  10   6  520.84   35.55
 -10  10   6  472.36   29.41
  10 -10  -6  548.41   36.07
 -10 -10   6  607.34   39.22
 -10  10   4  577.56   38.88
 -10 -10   4  557.91   35.61
 -10  10   4  597.86   36.24
  10  10  -4  640.00   41.91
  10 -10  -4  603.34   40.58
 -10  10   4  577.90   39.06
 -10 -10   4  542.82   37.63
  10  10  -2  857.59   50.05
  10 -10  -2  837.12   48.63
 -10 -10   2  866.34   47.72
 -10  10   2  869.00   47.60
  10  11 -19   40.47   12.09
  10 -11 -19   71.00   14.23
 -10  11  19   44.34   12.14
 -10 -11  19   48.60   13.71
  10  11 -17   -5.49    8.44
  10  11 -17    0.80    6.71
  10 -11 -17   12.27    9.49
 -10  11  17    4.57    7.17
 -10 -11  17  -11.86   10.03
  10  11 -15   16.71    8.75
  10  11 -15   19.14    8.39
  10 -11 -15   22.57    9.06
 -10  11  15    6.53    7.12
 -10 -11  15   23.93   11.68
 -10  11  13    7.50    6.05
  10 -11 -13    3.71    5.36
  10  11 -13   16.52    7.34
  10  11 -13    3.49    7.43
 -10  11  13   -3.60    5.64
 -10  11  13    7.10    8.08
 -10 -11  13    6.27    8.28
 -10  11  11    4.09    6.05
 -10  11  11    3.87    5.64
  10 -11 -11   -2.21    6.11
  10  11 -11   -5.42    5.63
  10  11 -11   -2.86    8.60
 -10  11  11   10.40    8.49
 -10  11  11    1.98    6.01
 -10 -11  11   -0.22    9.67
 -10  11   9    6.25    7.60
 -10  11   9    2.81    4.75
  10  11  -9   -1.28    7.14
  10 -11  -9    1.35    7.57
 -10 -11   9  -15.03    9.56
 -10  11   9   -9.24    7.91
 -10  11   9   15.66    8.25
  10 -11  -9   -2.72    5.63
  10  11  -9   -6.73    5.77
  10 -11  -7   14.25    8.21
  10  11  -7   14.19    7.29
 -10 -11   7   32.71    9.13
 -10  11   7   22.00    8.78
 -10  11   7    4.70    7.02
  10  11  -7   18.04    9.30
 -10  11   7   27.81    9.03
 -10  11   7   32.03   10.72
  10 -11  -7   12.29    6.34
 -10 -11   7   14.93    9.83
 -10 -11   5   10.46    8.57
 -10  11   5   15.01    8.11
 -10  11   5   -8.72    9.43
  10  11  -5   10.74    9.40
  10 -11  -5   17.86    8.29
 -10 -11   5    9.90    8.45
 -10  11   5    9.73    8.33
 -10  11   5    8.93    5.20
  10 -11  -3   30.04   12.97
 -10 -11   3    7.57    8.03
 -10 -11   3    7.84    8.49
 -10  11   3    4.73    6.47
 -10 -12  18  615.55   43.66
  10  12 -18  744.25   42.23
  10 -12 -18  748.72   42.77
 -10  12  18  721.69   43.38
 -10 -12  16  851.78   51.58
  10  12 -16  881.33   48.39
 -10  12  16  893.37   47.53
  10  12 -16  809.09   41.64
  10 -12 -16  802.97   41.89
  10  12 -14 1200.08   49.06
  10 -12 -14 1164.82   49.00
 -10  12  14 1167.69   54.24
 -10  12  14 1193.98   44.84
  10  12 -14 1261.47   56.34
 -10  12  14 1159.95   46.62
 -10  12  14 1219.78   55.16
 -10 -12  14 1253.88   61.78
  10 -12 -12  710.38   36.68
  10  12 -12  772.41   37.48
 -10  12  12  773.64   40.47
 -10  12  12  733.40   37.27
  10  12 -12  793.80   43.18
 -10  12  12  771.04   39.15
 -10  12  12  823.57   43.66
 -10 -12  12  805.55   47.43
  10 -12 -10 1102.59   46.97
  10  12 -10 1178.34   48.10
 -10  12  10 1070.89   48.66
 -10  12  10 1153.62   45.86
  10  12 -10 1173.66   53.40
 -10  12  10 1139.90   50.56
 -10  12  10 1052.37   49.38
  10 -12 -10 1209.53   54.54
 -10 -12  10 1205.21   58.09
  10 -12  -8 1228.43   51.62
  10  12  -8 1244.38   51.47
 -10 -12   8 1221.07   49.81
 -10  12   8 1260.18   49.57
 -10  12   8 1320.29   53.59
  10  12  -8 1255.08   57.34
 -10  12   8 1282.02   55.71
  10 -12  -8 1300.41   57.66
 -10  12   8 1211.40   55.05
 -10 -12   8 1295.23   60.43
 -10 -12   6  234.68   21.64
 -10  12   6  195.52   19.30
  10  12  -6  191.31   22.76
 -10  12   6  148.09   19.74
 -10  12   6  210.85   23.39
 -10  12   6  170.26   18.00
  10 -12  -6  161.86   21.36
 -10 -12   6  214.25   24.61
 -10 -12   4  539.03   38.93
  10 -12  -4  543.18   40.12
 -10 -12   4  450.52   32.22
 -10  12   4  493.12   32.91
  10  12  -4  551.13   39.86
 -10 -13  17    1.43    8.39
 -10  13  17   -0.35    7.90
  10 -13 -17   -8.94    7.10
 -10 -13  15   17.95   11.05
 -10 -13  15   20.67   10.58
 -10  13  15   14.21    9.66
  10  13 -15   15.54    7.88
 -10  13  15   11.25    8.31
  10  13 -15   27.16    9.54
  10 -13 -15   12.15    7.23
  10  13 -13   30.04    9.15
  10 -13 -13   11.24    6.88
 -10  13  13   23.93    8.03
 -10 -13  13    9.95    8.33
  10  13 -13   24.02    9.79
 -10 -13  13   -4.03    9.64
 -10  13  13   30.71   11.29
 -10  13  13   20.29    7.00
 -10  13  13   15.06    8.11
  10 -13 -11   29.65    8.73
  10  13 -11   38.08    9.44
 -10  13  11   27.22    8.65
 -10  13  11   18.01    6.81
  10  13 -11   41.23   12.79
 -10  13  11   41.12   11.96
 -10  13  11   39.89   10.77
 -10 -13  11   37.40   12.00
 -10 -13   9   64.38   11.04
 -10  13   9   72.91   11.54
  10 -13  -9   83.26   13.50
  10  13  -9   66.87   12.15
 -10  13   9   66.88   11.16
  10  13  -9   96.64   15.90
 -10  13   9   64.89   13.15
 -10  13   9   65.60   12.94
 -10  13   9   92.19   15.00
  10 -13  -9   88.43   16.52
 -10 -13   9   76.26   16.68
 -10 -13   7   29.77    9.01
 -10  13   7   70.51   12.12
  10 -13  -7   63.03   12.17
  10  13  -7   57.57   11.88
  10  13  -7   80.65   14.70
 -10  13   7   67.33   14.13
 -10  13   7   69.00   14.82
 -10  13   7   32.24    9.49
  10 -13  -7   68.53   14.02
 -10 -13   7   82.17   15.88
  10 -13  -5   15.65   12.01
 -10 -13   5   14.70   10.67
 -10  13   5    4.50    6.46
 -10 -13   5   -0.71    6.54
  10  13  -5   12.46    9.01
 -10 -14  18  443.70   37.47
 -10  14  16  363.87   30.82
  10  14 -16  358.97   31.05
 -10 -14  16  357.83   30.89
 -10 -14  16  410.66   36.72
  10  14 -14 1049.67   52.29
 -10  14  14  944.19   49.71
 -10  14  14  960.25   50.16
 -10 -14  14  954.36   51.56
 -10 -14  14 1058.80   57.62
 -10  14  12  325.98   25.20
 -10 -14  12  315.63   29.47
  10  14 -12  310.69   27.76
 -10  14  12  343.04   28.84
 -10  14  12  314.45   25.86
 -10  14  12  257.09   22.80
 -10 -14  12  285.51   29.02
 -10  14  10  409.94   30.25
 -10  14  10  450.51   31.90
  10  14 -10  422.29   32.45
 -10  14  10  422.46   27.43
 -10  14  10  453.09   31.98
  10 -14 -10  492.99   36.12
 -10 -14  10  422.70   35.13
 -10  14   8  997.56   49.90
  10 -14  -8  934.88   51.67
 -10  14   8  947.09   49.62
 -10 -14   8 1055.98   55.91
 -10  14   8  964.10   46.70
  10  14  -8 1001.04   51.64
 -10  14   6  602.77   40.06
  10 -14  -6  587.85   41.62
 -10 -14   6  594.27   42.08
  10  14  -6  618.35   41.56
 -10  14   6  545.08   33.79
 -10 -15  17    4.09    9.59
  10  15 -15   46.24   12.74
 -10 -15  15   69.03   15.09
 -10 -15  15   65.27   16.37
  10 -15 -13   76.63   13.55
 -10  15  13   93.05   13.80
 -10 -15  13   75.22   15.50
 -10  15  13   64.24   14.20
  10  15 -13   97.99   16.45
 -10  15  13   93.62   16.30
 -10 -15  13  121.41   19.67
 -10  15  11   -4.22    6.41
 -10 -15  11    1.49    7.77
  10  15 -11    8.38    8.66
 -10  15  11    8.47    7.14
 -10  15  11   -5.44    7.62
 -10  15  11    9.31    9.37
 -10 -15  11    4.01    8.58
 -10  15   9   26.86    9.91
 -10  15   9   32.49   11.26
 -10  15   9   30.35   11.50
  10 -15  -9   36.22   13.48
 -10 -15   9   26.31   11.26
  10  15  -9   36.27   13.01
 -10  15   7    1.34    6.63
 -10  15   7   24.53   11.17
 -10  15   7   13.98    8.05
 -10 -15   7   10.45    8.20
  10 -15  -7   -0.28    8.89
  10  15  -7   20.65   11.51
 -10  15   5   40.01   10.10
 -10 -16  16  284.28   28.50
  10  16 -14  453.12   34.71
 -10 -16  14  473.15   37.17
 -10 -16  14  488.48   40.10
  10 -16 -12  474.29   34.21
 -10  16  12  525.42   33.26
 -10 -16  12  537.19   40.75
 -10  16  12  570.86   36.22
  10  16 -12  474.14   35.29
 -10  16  12  523.76   33.68
 -10 -16  12  536.08   40.80
 -10 -16  10  338.00   32.54
 -10  16  10  347.39   26.40
 -10  16  10  398.04   30.73
  10 -16 -10  404.39   35.20
 -10  16  10  423.26   31.51
  10  16 -10  406.42   31.97
 -10  16  10  347.33   29.64
 -10  16   8  570.54   39.20
  10 -16  -8  693.47   46.38
 -10  16   8  619.56   40.51
 -10  16   8  616.59   38.83
  10  16  -8  602.08   40.69
 -10  16   6  275.28   25.06
  10  16  -6  289.30   28.67
  10  17 -13   35.11   11.36
 -10  17  11   19.10    8.83
  10  17 -11   -4.42    8.56
 -10  17  11    6.02    8.49
 -10  17  11    0.18    8.00
 -10  17   9   61.68   14.55
  10  17  -9   52.75   13.25
  10  17  -7    6.71    9.57
  10 -18 -12  385.08   32.74
  10  18 -12  380.10   32.06
  10  18 -10  361.84   31.23
 -11   0  21    0.74    7.07
 -11   0  21   -7.20    8.76
  11   0 -21    1.90    8.04
  11   0 -19   10.02   10.00
  11   0 -19   -3.04    7.38
 -11   0  19   -1.76    8.29
  11   0 -19   -7.03    7.78
  11   0 -17    2.45    6.49
  11   0 -17    2.30    7.58
 -11   0  17   -0.27    7.28
  11   0 -17   -1.80    6.03
  11   0 -15   -3.39    6.87
  11   0 -15    7.92    7.34
 -11   0  15   10.70    9.62
  11   0 -15   -1.51    5.38
  11   0 -13   -0.89    7.70
 -11   0  13    2.44    6.72
  11   0 -13    3.93    5.84
  11   0 -11   -0.65    6.44
 -11   0  11   15.07    7.76
  11   0 -11   -4.80    7.13
  11   0  -9    8.70    7.89
 -11   0   9    9.97    7.09
  11   0  -9   -1.72    2.85
  11   0  -9   -8.14    7.93
 -11   0   7    5.27    7.02
 -11   0   7   17.03    7.75
  11   0  -7    0.89    4.82
  11   0  -7   -3.36    6.95
 -11   0   5    5.45    7.75
  11   0  -5    1.20    7.77
 -11   0   3   -2.34    7.97
 -11   0   3   14.20    9.11
 -11  -1  22  275.86   27.74
  11   1 -20  679.18   41.69
  11  -1 -20  656.96   41.76
 -11   1  20  649.09   39.81
 -11  -1  20  683.18   41.67
  11   1 -20  647.25   40.53
 -11   1  20  619.47   41.76
 -11  -1  20  633.45   42.28
  11   1 -20  647.11   42.04
  11  -1 -20  719.33   44.22
  11  -1 -18 1078.63   48.60
  11   1 -18  990.33   48.04
 -11   1  18  986.91   52.77
 -11  -1  18 1049.80   54.30
  11   1 -18  997.03   47.12
  11  -1 -18 1037.79   49.12
  11   1 -18 1009.65   50.38
  11  -1 -18 1027.58   50.62
  11  -1 -16  811.46   39.44
  11   1 -16  774.27   39.63
 -11   1  16  744.22   44.27
 -11  -1  16  762.21   44.93
  11  -1 -16  828.88   39.40
  11   1 -16  742.39   36.62
  11   1 -16  771.95   41.23
  11  -1 -16  789.09   41.67
  11  -1 -14 1634.14   57.44
  11   1 -14 1594.05   58.13
 -11  -1  14 1595.81   66.32
 -11   1  14 1718.77   67.98
  11   1 -14 1635.78   52.38
  11  -1 -14 1584.70   60.53
  11   1 -14 1707.08   62.17
  11   1 -12 1625.07   58.31
  11  -1 -12 1590.28   56.49
 -11   1  12 1671.88   65.52
 -11  -1  12 1596.16   64.95
  11  -1 -12 1571.71   59.47
  11   1 -12 1622.47   60.24
 -11   1  10 1045.12   49.18
 -11  -1  10 1065.10   50.77
  11  -1 -10  997.54   32.18
  11  -1 -10  939.55   45.05
  11   1 -10  947.06   45.30
  11   1 -10 1012.18   45.16
  11  -1 -10  953.98   43.18
  11  -1  -8 2190.95   59.19
 -11   1   8 2130.88   73.18
 -11  -1   8 2069.86   73.53
  11   1  -8 2145.37   72.54
  11  -1  -8 2144.37   71.24
 -11   1   6 1397.93   55.35
 -11  -1   6 1502.58   58.94
  11   1  -6 1452.69   59.88
  11  -1  -6 1395.84   50.36
 -11  -1   6 1333.30   57.77
 -11   1   6 1269.67   56.74
 -11   1   4  456.50   35.15
 -11  -1   4  479.02   35.46
 -11   1   4  497.89   35.82
  11   1  -4  433.78   35.01
  11  -1  -4  486.38   37.00
 -11  -1   2  789.42   44.72
 -11   1   2  720.05   43.38
 -11   2  21   18.75    8.91
 -11  -2  21   14.66   11.46
 -11  -2  21   20.71   10.37
  11   2 -21   25.08   11.68
  11  -2 -21    3.14    7.38
  11   2 -19    0.13    7.51
  11  -2 -19   -1.91    7.46
 -11   2  19   -2.85    7.50
  11  -2 -19   -6.54    6.37
  11   2 -19   12.22    8.58
  11   2 -19   -9.96    9.22
  11  -2 -19   13.25   10.14
 -11   2  19   -2.98    7.93
 -11  -2  19    2.64    7.47
  11  -2 -17  113.43   15.10
  11   2 -17  115.34   16.69
  11   2 -17   97.77   15.98
  11  -2 -17  114.50   16.54
  11   2 -17  115.01   15.09
  11  -2 -17   81.51   13.79
 -11  -2  17  101.40   17.35
 -11   2  17   88.39   15.70
  11  -2 -15   52.56   10.44
  11   2 -15   66.86   12.37
  11  -2 -15   57.11   11.39
  11   2 -15   62.86   12.25
  11   2 -15   62.33    9.48
 -11  -2  15   80.29   16.19
 -11   2  15   72.97   15.28
  11  -2 -13   63.84   11.14
  11   2 -13   61.63   12.47
  11  -2 -13   46.16   11.62
  11   2 -13   45.82   11.77
  11   2 -13   46.96    7.96
 -11  -2  13   58.06   13.66
 -11   2  13   41.08   11.26
  11   2 -11   94.77   14.25
  11  -2 -11   88.78   13.23
 -11   2  11   80.23   13.96
 -11  -2  11   98.70   16.47
  11  -2 -11  100.35   14.77
  11   2 -11  102.91   14.23
  11   2  -9    9.90    7.79
  11  -2  -9   -3.22    5.73
 -11   2   9    7.03    6.25
 -11  -2   9    4.12    7.95
  11  -2  -9   -0.18    3.39
  11  -2  -9   -1.08    6.64
  11   2  -9   16.08    8.97
  11   2  -7   10.07    8.16
  11  -2  -7   -6.60    7.53
 -11  -2   7    5.68    5.88
 -11   2   7    3.32    6.23
 -11   2   7    8.55    6.67
 -11  -2   7   12.80    7.30
  11  -2  -7   11.69    6.17
 -11  -2   5   21.14    9.70
 -11   2   5   25.00   10.49
  11   2  -5   19.91   10.30
  11  -2  -5   26.90   10.09
 -11  -2   5   39.62   10.54
 -11   2   5   22.09   10.49
 -11   2   3   -4.73    9.02
 -11   2   3   15.59    8.48
 -11   3  22  565.50   39.47
  11   3 -20  845.36   46.95
  11  -3 -20  912.00   50.19
 -11   3  20  925.18   47.12
 -11  -3  20  868.54   48.60
 -11   3  20  872.41   50.42
 -11  -3  20  905.25   50.61
  11   3 -20  956.60   51.27
  11  -3 -20  944.96   51.10
  11   3 -20  887.21   49.32
  11   3 -18 1755.56   63.96
  11  -3 -18 1915.73   70.12
 -11   3  18 1715.66   72.32
 -11  -3  18 1876.45   75.00
  11   3 -18 1945.90   71.71
  11  -3 -18 1733.33   68.32
  11  -3 -18 1784.71   63.80
  11   3 -18 1773.15   67.91
  11  -3 -16  864.97   42.24
  11   3 -16  783.62   36.18
 -11  -3  16  895.54   49.30
 -11   3  16  864.45   47.90
  11   3 -16  806.97   42.69
  11  -3 -16  894.23   44.53
  11  -3 -16  837.72   39.02
  11   3 -16  798.44   41.74
  11   3 -14 1304.53   43.32
 -11  -3  14 1456.28   62.72
 -11   3  14 1369.77   60.14
  11  -3 -14 1262.77   53.17
  11   3 -14 1337.47   54.35
  11  -3 -14 1343.90   49.58
  11   3 -14 1320.15   53.33
  11   3 -12 1663.23   45.40
  11  -3 -12 1632.41   55.86
  11   3 -12 1605.05   59.69
 -11  -3  12 1746.78   68.37
 -11   3  12 1607.05   64.24
  11  -3 -12 1550.44   59.36
  11   3 -12 1629.01   60.65
  11   3 -10  676.03   36.98
  11  -3 -10  638.71   34.02
 -11  -3  10  741.57   42.54
 -11   3  10  634.41   37.44
  11  -3 -10  683.72   28.91
  11  -3 -10  636.63   36.63
  11   3 -10  699.19   38.36
  11   3  -8  824.89   42.96
  11  -3  -8  882.39   41.61
 -11  -3   8  811.65   44.62
 -11   3   8  826.71   41.68
  11  -3  -8  866.35   36.10
 -11  -3   8  869.18   43.72
 -11   3   8  826.12   42.32
 -11  -3   6  921.01   47.51
 -11   3   6  986.41   48.57
 -11   3   6  969.49   50.70
  11   3  -6 1081.01   51.22
  11  -3  -6 1075.68   44.76
 -11  -3   6  949.35   48.16
 -11   3   6  943.46   42.64
 -11   3   4  395.85   32.46
  11   3  -4  410.68   33.45
  11  -3  -4  440.53   34.62
 -11   3   4  359.63   29.82
 -11  -3   4  410.48   32.27
 -11   3   4  383.13   31.29
 -11  -3   2  646.05   39.72
 -11   4  21   -2.86    6.95
 -11  -4  21    2.83    7.28
  11   4 -21  -10.66    8.69
  11   4 -19   40.82   11.29
  11  -4 -19   57.60   13.59
 -11   4  19   33.78    8.97
  11   4 -19   65.61   14.74
  11   4 -19   67.96   15.65
  11  -4 -19   53.20   13.77
 -11   4  19   30.53   11.57
 -11  -4  19   46.42   12.80
  11  -4 -17   -6.58    6.63
  11   4 -17    2.76    6.41
  11   4 -17    9.65    9.19
  11  -4 -17   -5.70    8.02
  11   4 -17    1.03    4.93
  11  -4 -17    8.13    8.86
 -11  -4  17   12.74    8.31
 -11   4  17   -2.79    8.12
  11  -4 -15   38.27    8.98
  11   4 -15   32.46    9.30
  11  -4 -15   37.29   11.49
  11   4 -15   30.67    9.23
  11   4 -15   26.17    7.00
 -11  -4  15   34.19   12.23
 -11   4  15   38.86   11.53
  11  -4 -13   59.80   10.41
  11   4 -13   88.65   13.80
  11  -4 -13   88.58   13.40
  11   4 -13   81.63   13.93
  11   4 -13   53.06    7.34
 -11  -4  13   80.21   15.58
 -11   4  13   84.15   15.27
  11   4 -11   79.15   13.52
  11  -4 -11   73.66   11.69
 -11  -4  11  106.62   17.30
  11  -4 -11   90.03   10.66
 -11   4  11   82.77   14.55
  11  -4 -11   56.46   12.41
  11   4 -11   58.92   11.75
  11   4  -9  220.31   21.93
  11  -4  -9  263.83   21.36
 -11  -4   9  217.38   23.53
 -11   4   9  236.97   21.77
  11  -4  -9  216.39   17.27
  11  -4  -9  210.26   21.67
  11   4  -9  255.09   22.87
  11   4  -7   12.13    8.42
  11  -4  -7   11.28    7.45
 -11   4   7    5.43    8.63
 -11  -4   7   22.68   10.10
  11  -4  -7   24.39    7.67
 -11   4   7   10.79    6.93
 -11  -4   7   19.50    9.62
 -11   4   7   23.45    9.55
  11   4  -5   91.19   15.40
  11  -4  -5   83.07   14.01
 -11  -4   5  106.91   17.00
 -11   4   5   89.03   14.91
 -11   4   5  107.44   18.28
 -11   4   5   86.10   15.18
 -11  -4   5  108.35   16.77
  11  -4  -5   84.01   13.53
  11   4  -5  124.36   18.52
 -11   4   3   50.87   12.76
 -11   4   3   27.95   12.35
  11   5 -20  775.57   44.37
  11  -5 -20  876.24   50.30
 -11   5  20  727.61   41.07
  11   5 -20  793.69   47.66
  11   5 -20  992.39   51.69
  11  -5 -20  812.83   47.70
 -11  -5  20  884.81   49.86
  11  -5 -18  797.04   43.95
  11   5 -18  595.32   34.58
 -11   5  18  653.05   35.45
  11  -5 -18  640.38   34.92
  11   5 -18  701.28   41.71
  11   5 -18  732.48   41.83
  11  -5 -18  670.28   40.41
 -11  -5  18  776.40   46.58
 -11   5  18  666.65   43.45
  11   5 -16  799.21   35.23
  11  -5 -16  806.43   37.18
  11   5 -16  814.71   43.00
 -11   5  16  779.12   34.84
  11   5 -16  782.63   41.77
  11  -5 -16  855.45   43.52
 -11  -5  16  874.06   49.06
 -11   5  16  825.74   47.06
  11  -5 -14  928.34   39.11
  11   5 -14 1047.99   47.70
 -11   5  14  987.86   43.03
 -11  -5  14 1065.73   54.00
 -11   5  14  983.71   50.32
  11  -5 -14  983.02   46.08
  11   5 -14 1042.23   47.37
  11  -5 -12 1404.37   49.90
  11   5 -12 1515.95   58.37
 -11  -5  12 1519.07   64.86
 -11   5  12 1287.67   57.16
  11  -5 -12 1471.90   57.00
  11   5 -12 1470.03   56.83
  11  -5 -10  593.07   35.44
  11   5 -10  624.55   36.41
  11   5 -10  631.40   37.20
  11  -5 -10  693.29   34.22
 -11   5  10  649.21   37.98
  11  -5 -10  645.02   30.73
 -11  -5  10  745.09   43.49
 -11   5  10  647.08   37.47
 -11  -5   8  964.44   46.46
 -11   5   8 1051.90   48.23
  11   5  -8  980.10   48.05
  11  -5  -8 1091.21   45.76
 -11   5   8  884.53   47.00
  11  -5  -8 1042.14   42.74
 -11  -5   8 1018.59   51.00
 -11   5   8  901.96   43.50
 -11  -5   6  653.12   39.32
 -11   5   6  690.63   40.46
 -11   5   6  670.61   41.51
  11   5  -6  672.01   41.55
 -11   5   6  643.71   40.25
 -11   5   6  666.63   34.83
  11  -5  -6  731.36   38.47
 -11  -5   6  710.38   41.90
 -11   5   4  308.39   29.84
  11   5  -4  300.64   28.60
  11  -5  -4  296.58   28.30
  11  -5  -4  355.75   28.79
 -11   5   4  333.53   29.57
 -11  -5   4  331.42   29.28
 -11   5   4  285.73   27.20
  11   6 -21   29.87   11.24
 -11   6  21    4.01    7.79
 -11  -6  21   16.36    9.17
 -11  -6  19   90.80   17.52
  11   6 -19   89.03   14.16
  11  -6 -19  104.42   17.41
 -11   6  19   59.80   11.42
  11   6 -19   93.00   17.00
 -11   6  19   65.25   14.35
  11   6 -19   91.94   15.75
  11  -6 -19   93.73   17.38
  11  -6 -17   20.36    8.01
  11   6 -17    6.01    8.24
  11   6 -17   20.74    9.08
  11  -6 -17   14.77    8.05
 -11  -6  17   12.47    7.31
 -11   6  17   11.19    8.00
  11  -6 -17    8.00    6.43
  11  -6 -15  164.25   15.68
  11   6 -15  149.42   18.49
 -11   6  15  161.72   16.34
  11  -6 -15  165.69   18.94
  11   6 -15  197.61   20.39
 -11  -6  15  178.78   22.83
 -11   6  15  216.47   23.51
  11   6 -13  185.37   19.80
  11  -6 -13  166.65   15.34
 -11   6  13  183.18   18.73
  11  -6 -13  185.08   19.43
  11   6 -13  146.78   17.76
 -11  -6  13  229.01   25.44
 -11   6  13  171.74   20.54
  11   6 -11   26.36    9.79
  11  -6 -11    9.07    5.77
 -11   6  11    7.10    5.92
  11  -6 -11   22.63    7.92
  11   6 -11   39.94   10.20
 -11  -6  11   16.41    8.67
  11  -6 -11   33.80    8.65
 -11   6  11   32.63   10.59
  11   6  -9  119.86   16.55
  11  -6  -9  133.34   15.15
 -11   6   9  116.68   16.76
 -11  -6   9  126.50   18.14
  11  -6  -9  120.23   14.41
 -11   6   9  153.53   17.34
  11  -6  -9  107.87   15.78
  11   6  -9  111.40   16.31
 -11  -6   7   60.95   13.15
 -11   6   7   30.36    9.52
 -11   6   7   41.65   11.18
  11   6  -7   41.16   11.90
  11  -6  -7   23.87    8.43
 -11   6   7   36.29    9.50
 -11   6   7   34.29    9.35
 -11  -6   7   35.18   11.11
  11  -6  -7   27.61    8.81
 -11   6   7   35.56    8.54
 -11  -6   5   -0.19    6.52
 -11   6   5   -5.69    7.49
  11   6  -5    2.59    8.68
 -11   6   5    6.39    7.07
 -11  -6   5    5.57    7.58
  11  -6  -5    3.28    6.63
 -11   6   5   -3.52   10.02
  11  -6  -3  100.30   16.68
 -11  -7  20  395.35   33.98
 -11   7  20  320.97   28.85
  11   7 -20  335.91   30.21
  11  -7 -20  335.71   30.09
  11  -7 -18  719.38   43.62
  11   7 -18  662.02   41.59
 -11  -7  18  687.51   44.80
 -11   7  18  629.88   41.03
  11   7 -18  668.52   40.59
  11  -7 -18  682.08   40.60
  11  -7 -16  845.27   36.72
  11   7 -16  881.41   45.88
 -11   7  16  820.96   35.62
  11   7 -16  899.48   44.70
  11  -7 -16  844.86   43.74
 -11  -7  16  789.35   47.85
  11  -7 -14  787.33   33.81
  11   7 -14  777.86   41.76
 -11   7  14  803.06   38.17
  11  -7 -14  726.87   39.15
  11   7 -14  782.41   40.35
 -11  -7  14  698.80   44.87
 -11   7  14  759.51   44.00
  11  -7 -12  803.33   34.69
  11   7 -12  832.73   43.25
 -11   7  12  795.82   40.61
 -11  -7  12  847.76   48.55
 -11   7  12  847.42   44.45
  11  -7 -12  846.90   41.81
  11   7 -12  756.32   39.55
  11  -7 -10 1250.95   52.79
  11   7 -10 1168.75   51.35
  11  -7 -10 1299.72   47.07
  11   7 -10 1204.07   54.04
 -11   7  10 1185.29   52.93
 -11   7  10 1186.46   51.76
  11  -7 -10 1254.98   48.58
 -11  -7  10 1306.37   59.98
 -11   7  10 1199.87   52.27
 -11  -7   8  858.63   43.33
 -11   7   8  822.11   42.62
  11   7  -8  905.56   46.86
  11  -7  -8  902.59   40.28
 -11   7   8  843.79   45.93
 -11   7   8  735.95   42.95
  11  -7  -8  942.71   42.88
 -11   7   8  836.54   41.33
 -11  -7   8  886.45   48.21
 -11   7   8  865.31   40.94
 -11  -7   6  708.83   41.48
 -11   7   6  793.17   43.33
 -11   7   6  715.93   43.30
  11   7  -6  831.33   47.07
 -11   7   6  663.93   41.91
  11  -7  -6  792.68   42.20
 -11   7   6  711.65   36.47
 -11  -7   6  820.60   46.34
 -11   7   4  901.59   50.72
  11   7  -4  919.68   50.99
  11  -7  -4  924.82   51.40
  11  -7  -4  933.47   49.99
 -11   7   4  894.07   49.81
 -11  -7   4  937.72   50.12
 -11   7   4  935.72   49.76
 -11   8  21   52.78   12.54
  11  -8 -19    3.06    9.12
  11   8 -19    9.58    8.79
 -11  -8  19   -2.59    8.57
 -11   8  19   -0.95    8.39
  11   8 -19    5.80    7.30
  11  -8 -19   20.87   10.37
  11   8 -17   -3.43    8.25
 -11  -8  17   -5.60    8.40
 -11   8  17   13.64    8.67
  11   8 -17    6.74    7.92
  11  -8 -17    9.37    8.51
  11  -8 -15  111.27   15.62
  11   8 -15   93.50   14.74
 -11   8  15  109.04   13.60
  11  -8 -15  115.68   12.48
  11   8 -15  144.13   19.32
 -11   8  15   96.82   17.05
 -11  -8  15  120.73   19.04
  11  -8 -13   -1.75    6.43
  11   8 -13    3.44    6.18
 -11   8  13   -4.44    6.06
  11  -8 -13    8.03    5.60
  11   8 -13   18.29    9.51
 -11   8  13    1.69    8.16
 -11  -8  13    0.81    7.43
 -11   8  13   -0.89    7.57
  11  -8 -11   95.26   15.42
  11   8 -11   70.69   12.98
 -11   8  11   95.15   15.44
  11   8 -11  104.93   16.49
  11  -8 -11   99.67   11.88
 -11   8  11   70.30   13.73
 -11   8  11   91.24   14.42
  11  -8 -11  103.50   14.69
 -11  -8  11   86.18   16.41
 -11   8  11   91.64   15.32
  11  -8  -9   15.54    8.67
  11   8  -9    7.06    6.62
 -11   8   9   23.72    8.78
  11   8  -9   31.50    9.86
  11  -8  -9   37.55    8.41
 -11   8   9   12.34    7.94
 -11   8   9   21.84    8.73
  11  -8  -9   28.72    8.91
 -11  -8   9   -0.85    8.86
 -11  -8   7    4.58    6.81
 -11   8   7   -0.52    6.88
 -11   8   7    6.45    7.58
  11  -8  -7   -5.14    5.55
  11   8  -7   -1.16    7.70
 -11   8   7   -6.51    6.59
 -11   8   7    9.15    8.21
  11  -8  -7   -5.87    6.85
 -11  -8   7    2.66    7.20
 -11  -8   5    2.76    7.12
 -11   8   5   22.39    9.39
  11   8  -5   32.04   14.00
 -11   8   5   30.22   11.25
 -11  -8   5   12.79    6.98
  11  -8  -5   30.16   12.72
 -11   8   5   22.38   10.26
  11  -8  -3   18.81   10.93
 -11  -9  20  586.64   42.17
 -11   9  20  563.25   38.84
  11   9 -20  557.29   38.99
  11  -9 -20  621.44   41.08
  11  -9 -18  421.88   34.84
  11   9 -18  437.91   34.77
 -11  -9  18  401.93   35.40
 -11   9  18  407.98   32.51
  11   9 -18  377.38   30.38
  11  -9 -18  384.89   31.10
  11   9 -16  883.03   47.53
 -11  -9  16  879.65   52.05
 -11   9  16  878.72   40.55
 -11   9  16  834.67   47.15
  11   9 -16  934.54   45.55
  11  -9 -16  932.71   45.72
  11  -9 -14  951.11   45.49
  11   9 -14 1036.54   46.77
  11   9 -14 1010.24   49.37
 -11   9  14  940.36   42.29
 -11   9  14 1032.99   46.08
 -11   9  14 1009.50   50.37
 -11  -9  14 1072.11   56.73
  11  -9 -12 1199.62   51.48
  11   9 -12 1244.85   52.03
  11  -9 -12 1307.84   43.51
  11   9 -12 1309.73   56.81
 -11   9  12 1176.67   50.95
 -11   9  12 1153.10   51.65
 -11   9  12 1251.31   55.61
 -11  -9  12 1351.34   62.90
  11  -9 -10 1650.21   62.53
  11   9 -10 1595.49   61.52
 -11   9  10 1513.22   62.02
  11  -9 -10 1683.75   53.55
  11   9 -10 1712.59   66.58
 -11   9  10 1584.27   63.70
 -11   9  10 1593.00   62.29
  11  -9 -10 1673.66   61.36
 -11  -9  10 1700.48   70.87
 -11  -9   8 1055.55   49.85
 -11   9   8 1230.73   52.26
  11  -9  -8 1155.31   52.16
  11   9  -8 1058.00   50.89
 -11   9   8 1049.45   53.21
  11   9  -8 1249.14   57.19
  11  -9  -8 1181.34   46.45
 -11   9   8 1099.29   53.94
  11  -9  -8 1239.13   53.02
 -11   9   8 1170.77   50.52
 -11  -9   8 1242.82   59.04
 -11  -9   6  923.03   47.69
 -11   9   6  904.36   46.64
 -11   9   6  933.83   50.39
  11   9  -6  999.38   53.12
 -11  -9   6 1048.15   54.16
 -11   9   6  985.51   51.67
 -11   9   6  934.16   42.92
  11  -9  -6  970.41   49.81
 -11  -9   4  932.68   50.47
 -11   9   4  994.15   51.68
  11  -9  -4 1083.43   56.08
 -11 -10  19  -10.91   10.69
 -11  10  19    7.76    9.62
  11  10 -19    8.98    9.14
  11 -10 -19    9.79    9.06
  11  10 -17  133.20   19.76
 -11 -10  17  123.34   20.41
 -11  10  17   99.55   17.32
  11  10 -17  153.22   18.98
  11 -10 -17  112.36   16.86
  11  10 -15   20.75    8.52
  11 -10 -15   23.21    9.16
 -11  10  15    7.41    6.04
  11  10 -15   41.61   12.00
 -11  10  15   22.45    8.91
 -11  10  15   17.60    7.36
 -11 -10  15   12.41    9.73
  11 -10 -13   20.21    8.07
  11  10 -13   52.00   11.15
 -11  10  13   35.39    8.57
  11  10 -13   43.42   12.16
 -11  10  13   28.11    9.39
 -11  10  13   56.80   11.60
 -11 -10  13   50.44   14.26
  11 -10 -11   53.21   11.91
  11  10 -11   33.35    9.69
 -11  10  11   54.94   11.72
  11  10 -11   43.42   11.97
 -11  10  11   26.08    8.98
 -11  10  11   44.52   11.37
  11 -10 -11   33.66   10.28
 -11 -10  11   52.53   14.33
 -11 -10   9    0.28    5.82
 -11  10   9    5.27    6.47
  11 -10  -9   14.72    9.02
  11  10  -9   -0.47    6.94
 -11  10   9    5.87    8.33
  11  10  -9   17.25    8.89
 -11  10   9   14.46    8.45
 -11  10   9   10.51    6.85
  11 -10  -9   10.30    7.70
 -11 -10   9   11.80    8.46
 -11 -10   7    3.62    6.67
 -11  10   7    2.64    6.46
 -11  10   7   27.04   11.33
  11  10  -7    0.52    7.72
 -11  10   7   17.39   10.51
 -11  10   7   14.22    7.73
  11 -10  -7   -2.22    7.22
 -11 -10   7   31.19   12.86
 -11 -10   5   -1.57    6.99
 -11  10   5    2.51    8.16
  11 -10  -5   14.36   10.10
 -11 -10   5    9.47   10.48
 -11 -11  20  478.93   38.56
 -11 -11  18  555.54   42.28
 -11  11  18  588.26   40.27
  11  11 -18  567.53   37.01
  11 -11 -18  574.93   37.36
  11  11 -16 1354.85   61.05
 -11 -11  16 1286.61   65.90
 -11  11  16 1261.64   59.45
  11  11 -16 1322.78   55.47
  11 -11 -16 1317.95   55.79
  11 -11 -14  727.91   39.47
  11  11 -14  801.69   40.67
 -11  11  14  821.81   39.21
  11  11 -14  739.02   43.81
 -11  11  14  785.96   40.47
 -11  11  14  819.54   45.74
 -11 -11  14  864.18   51.86
  11 -11 -12  237.47   22.34
  11  11 -12  243.28   21.71
 -11  11  12  210.85   20.94
 -11  11  12  200.63   20.48
  11  11 -12  220.54   23.20
 -11  11  12  215.63   22.09
 -11  11  12  241.73   24.21
 -11 -11  12  209.13   24.53
  11  11 -10  965.79   45.77
  11 -11 -10  986.39   46.43
 -11  11  10  920.97   47.09
 -11  11  10  875.01   39.25
  11  11 -10  989.35   50.44
 -11  11  10  960.61   48.62
 -11  11  10  950.28   47.17
  11 -11 -10 1008.08   49.12
 -11 -11  10  996.98   54.14
 -11  11   8  356.52   30.59
 -11 -11   8  382.06   28.85
 -11  11   8  363.13   27.40
  11 -11  -8  399.42   30.08
  11  11  -8  351.22   28.32
  11 -11  -8  392.12   30.95
 -11  11   8  428.93   33.32
 -11  11   8  382.41   28.69
  11  11  -8  408.18   32.75
 -11 -11   6  259.56   24.80
 -11  11   6  232.54   23.11
 -11 -11   6  279.54   28.99
  11 -11  -6  243.34   25.74
  11  11  -6  311.67   29.73
 -11  11   6  251.14   21.84
 -11 -11   4  769.54   45.37
 -11 -11   4  739.66   47.62
  11  12 -19   13.24   10.82
  11 -12 -19   19.37    9.06
 -11 -12  19    8.99    9.37
  11  12 -17   21.46    9.07
  11 -12 -17   12.30    8.30
 -11  12  17   20.15   10.91
 -11 -12  17   29.22   11.05
  11  12 -17   19.17   10.97
  11  12 -15    4.54    7.32
  11 -12 -15   10.25    7.51
  11  12 -15   21.24   11.20
 -11  12  15   15.03    8.79
 -11 -12  15   12.92   10.62
 -11  12  13   10.35    7.51
 -11  12  13   14.94    7.90
  11 -12 -13   -8.43    6.89
  11  12 -13    7.83    7.22
  11  12 -13    5.75    7.18
 -11  12  13    9.24    7.53
 -11  12  13    7.24    8.79
 -11 -12  13  -16.45   12.09
 -11  12  11   -0.02    6.14
 -11  12  11   -0.50    5.84
  11  12 -11    8.93    9.89
  11 -12 -11   10.57    8.15
  11  12 -11    2.21    6.83
 -11  12  11    8.95    8.76
 -11  12  11    2.08    6.51
  11 -12 -11    6.50    7.74
 -11 -12  11   11.81   11.34
 -11  12   9   14.96    8.69
  11  12  -9   17.31   10.06
 -11 -12   9   12.09    6.88
 -11  12   9   24.76    8.69
  11 -12  -9    9.82    7.18
  11  12  -9   29.26   10.42
 -11  12   9   14.39    7.98
 -11  12   9    8.56    9.21
  11 -12  -9   26.12   10.22
 -11 -12   9    6.73    8.60
 -11  12   7   -6.89   10.47
  11 -12  -7   -5.62    8.90
  11  12  -7   -2.44    6.91
 -11 -12   7    3.80    6.63
 -11  12   7    3.20    5.73
 -11  12   7    5.89    7.08
 -11  12   7    1.01    8.46
  11 -12  -7    7.66    7.45
 -11 -12   7   12.26   10.58
  11  12  -7    6.98    9.78
 -11 -12   5   -3.86    7.12
 -11  12   5   -2.29    6.29
 -11 -12   5   -4.52    7.21
 -11 -13  18  352.51   34.33
 -11  13  16  716.13   45.31
 -11 -13  16  732.11   49.85
  11  13 -16  690.66   43.72
 -11  13  16  737.34   45.33
  11 -13 -16  679.80   39.12
  11 -13 -14  539.63   33.18
  11  13 -14  555.75   33.53
 -11  13  14  547.14   36.98
 -11  13  14  495.33   31.23
  11  13 -14  575.41   38.53
 -11  13  14  515.66   32.90
 -11  13  14  569.86   38.41
 -11 -13  14  515.75   41.30
  11 -13 -12  264.41   22.94
  11  13 -12  265.12   22.77
 -11  13  12  240.62   23.35
 -11  13  12  235.62   22.29
  11  13 -12  249.77   25.75
 -11  13  12  229.29   23.13
 -11  13  12  255.27   26.01
 -11 -13  12  238.76   27.71
  11 -13 -10  857.56   43.17
  11  13 -10  894.76   43.67
 -11 -13  10  847.14   42.51
 -11  13  10  841.81   41.81
 -11  13  10  873.61   46.97
 -11  13  10  874.39   46.39
  11  13 -10  847.14   47.88
 -11  13  10  820.86   46.72
  11 -13 -10  901.03   49.16
 -11 -13  10  989.65   55.47
  11 -13  -8  295.01   26.22
  11  13  -8  314.05   26.82
 -11 -13   8  320.71   26.59
 -11  13   8  318.54   29.21
 -11  13   8  320.46   26.44
  11  13  -8  295.70   29.17
  11 -13  -8  379.67   32.34
 -11  13   8  384.04   32.34
 -11 -13   8  334.91   32.31
  11  14 -15   37.31   12.55
 -11  14  15   41.92   12.84
 -11 -14  15   43.21   13.86
 -11  14  13   96.78   14.31
  11  14 -13  111.97   17.81
 -11  14  13   87.19   15.72
 -11  14  13   75.05   15.14
 -11  14  13   84.77   13.98
 -11 -14  13  142.30   22.59
 -11  14  11  113.04   17.42
  11  14 -11  120.06   19.30
 -11  14  11   92.16   13.71
 -11  14  11   84.84   15.63
 -11  14  11  108.17   17.23
  11 -14 -11  103.29   18.31
 -11 -14  11  133.22   21.37
 -11  14   9   15.65    7.30
  11  14  -9   31.52   12.29
 -11  14   9   52.96   12.92
 -11  14   9   39.18   11.93
  11 -14  -9   19.75   10.47
 -11 -14   9   41.23   13.78
 -11  14   7    4.13    6.68
 -11  15  14  490.81   35.44
  11  15 -14  487.51   36.57
 -11  15  12  665.83   38.66
 -11  15  12  646.19   40.06
 -11  15  12  630.00   38.79
  11  15 -12  744.59   44.89
 -11  15  10  693.95   43.42
  11 -15 -10  751.92   47.29
 -11  15  10  678.19   42.43
 -11  15  10  601.24   39.34
  11  15 -10  698.34   44.13
 -11  15   8  305.15   27.58
 -11  16  13    4.02    8.39
 -11  16  13   -7.49    7.13
 -11  16  13    2.00    7.83
 -11  16  11   51.63   13.17
 -11  16  11   28.52   10.61
  11  16 -11   39.53   13.12
 -11  17  12  442.31   32.40
 -11  17  12  419.90   33.20
 -11  17  12  499.49   35.36
  12   0 -22  348.01   32.35
 -12   0  22  302.01   30.47
  12   0 -20 1348.39   59.98
 -12   0  20 1414.84   66.93
  12   0 -20 1326.47   58.81
  12   0 -20 1441.42   65.07
  12   0 -18  597.69   35.86
 -12   0  18  513.82   38.85
  12   0 -18  543.59   33.35
  12   0 -18  558.99   37.01
  12   0 -16 1497.09   57.89
 -12   0  16 1453.44   65.80
  12   0 -16 1511.23   53.90
  12   0 -16 1520.41   61.40
  12   0 -14 2599.70   80.10
 -12   0  14 2691.29   91.21
  12   0 -14 2541.61   82.97
  12   0 -12  698.44   37.92
 -12   0  12  723.63   42.96
  12   0 -12  704.94   40.03
 -12   0  10  670.03   40.52
  12   0 -10  615.93   38.27
  12   0 -10  662.02   37.99
 -12   0   8 2287.20   78.68
 -12   0   8 2243.24   80.30
  12   0  -8 2268.96   78.83
 -12   0   6  796.73   46.35
  12   0  -6  806.13   46.18
 -12   0   4 1024.67   53.66
  12   1 -21   -4.91    7.17
 -12   1  21    0.20    7.79
 -12  -1  21   -5.20    8.24
  12   1 -21    5.47    8.53
  12  -1 -21   22.75   11.34
 -12   1  21   30.64   12.15
 -12  -1  21   16.58   10.49
  12  -1 -19    1.15    8.88
  12   1 -19   -4.03    6.70
  12   1 -19    3.13    6.44
  12  -1 -19    0.52    7.02
  12   1 -19   19.45   10.29
  12  -1 -19    0.74    8.69
 -12   1  19   11.20   10.51
 -12  -1  19    6.94    9.57
  12  -1 -17   46.90   12.19
  12   1 -17   46.48   11.36
  12   1 -17   50.11   10.35
  12  -1 -17   56.26   11.17
  12   1 -17   32.53   10.92
  12  -1 -17   52.64   12.31
 -12   1  17   60.35   14.95
 -12  -1  17   63.78   15.05
  12  -1 -15   15.45    7.75
  12   1 -15   -2.48    7.94
  12   1 -15   15.77    6.68
  12  -1 -15   -9.44    7.24
  12   1 -15    0.69    7.98
 -12  -1  15   13.55   11.36
 -12   1  15   27.80   12.71
  12  -1 -13    4.22    6.75
  12   1 -13    3.36    6.26
 -12   1  13   14.59    8.37
 -12  -1  13    3.78    8.71
  12  -1 -13    5.74    6.70
  12   1 -13   -9.25    7.29
  12  -1 -11   34.24   10.22
  12   1 -11   32.54   10.31
 -12   1  11   33.06   10.42
 -12  -1  11   46.78   12.51
  12   1 -11   52.74   12.18
  12  -1 -11   40.35   10.82
 -12   1   9   13.07    9.73
 -12  -1   9   10.93    9.51
  12  -1  -9   12.05    7.74
  12   1  -9    6.73    7.47
 -12  -1   7    6.10    8.02
 -12   1   7   -0.73    8.31
  12   1  -7    0.71    7.33
  12  -1  -7    4.20    7.14
 -12   1   7    6.98    6.48
 -12  -1   7    6.35    6.66
 -12   1   5   -3.11    8.45
 -12   2  22  505.09   36.74
 -12  -2  22  513.98   39.43
  12   2 -22  481.86   37.18
  12  -2 -20  704.19   40.93
  12   2 -20  757.72   44.45
 -12   2  20  599.65   43.18
 -12  -2  20  690.09   45.17
  12   2 -20  736.89   45.48
  12  -2 -20  614.13   41.85
  12   2 -20  701.49   40.74
  12  -2 -20  699.09   42.12
  12  -2 -18  646.16   36.51
  12   2 -18  639.90   38.51
 -12   2  18  646.28   43.29
 -12  -2  18  608.99   42.29
  12   2 -18  577.00   38.10
  12  -2 -18  574.54   37.91
  12   2 -18  609.94   34.49
  12  -2 -18  669.88   38.22
  12  -2 -16  653.63   35.69
  12   2 -16  699.47   39.05
 -12  -2  16  693.07   43.82
 -12   2  16  698.27   43.71
  12  -2 -16  670.21   39.12
  12   2 -16  620.34   37.80
  12   2 -16  641.95   31.90
  12  -2 -14 1657.11   59.46
  12   2 -14 1690.45   62.86
 -12  -2  14 1674.47   69.88
 -12   2  14 1656.31   68.58
  12  -2 -14 1616.31   63.15
  12   2 -14 1588.30   62.81
  12   2 -14 1639.68   50.40
  12  -2 -12  723.50   40.48
  12   2 -12  768.19   41.49
 -12  -2  12  764.03   44.35
 -12   2  12  766.79   43.74
  12   2 -12  669.65   38.40
  12  -2 -12  697.64   37.15
  12  -2 -10 1845.77   69.30
  12   2 -10 1726.03   67.31
 -12  -2  10 1801.62   70.93
 -12   2  10 1759.21   67.83
  12   2 -10 1729.36   66.36
  12  -2 -10 1815.36   65.21
 -12  -2   8  921.14   48.97
 -12   2   8 1033.90   51.43
 -12  -2   8  980.10   50.17
 -12   2   8 1043.88   49.03
  12   2  -8 1076.81   51.98
  12  -2  -8 1059.45   49.91
  12   2  -6  406.13   33.16
 -12  -2   6  391.11   32.01
 -12   2   6  385.32   32.01
 -12   2   6  329.81   30.58
  12   3 -21    0.36    8.17
 -12   3  21    3.42    7.42
 -12   3  21    3.84    9.03
 -12  -3  21    5.91    9.84
  12   3 -21   13.54   10.72
  12  -3 -21   -1.81    8.03
  12  -3 -19  124.15   16.80
  12   3 -19  108.76   17.50
 -12   3  19  142.27   20.97
 -12  -3  19  123.63   19.94
  12   3 -19  111.46   18.04
  12  -3 -19  133.86   19.35
  12   3 -19  135.08   16.99
  12  -3 -19  116.14   17.35
  12  -3 -17    3.83    6.74
  12   3 -17   -9.69    8.09
 -12  -3  17    2.37    8.67
 -12   3  17   18.59   11.19
  12   3 -17   -4.25    7.78
  12  -3 -17   11.33    7.35
  12   3 -17   -0.64    4.96
  12  -3 -17    9.02    7.25
  12  -3 -15    5.44    7.06
  12   3 -15  -10.18    8.86
  12  -3 -15    0.63    5.91
  12   3 -15   -2.05    5.95
 -12  -3  15    0.74    7.75
 -12   3  15   -1.25    7.58
  12  -3 -13   26.69   10.97
  12   3 -13   25.57    9.70
  12  -3 -13   44.54    9.69
  12   3 -13   59.05   13.12
 -12  -3  13   41.59   12.24
 -12   3  13   78.86   15.60
  12  -3 -11   87.21   15.40
  12   3 -11   94.39   15.09
  12   3 -11   91.03   15.35
  12  -3 -11   88.05   13.85
 -12  -3  11   81.93   16.52
 -12   3  11  106.54   18.13
 -12  -3   9   -1.72    7.51
 -12   3   9    8.06    7.81
  12  -3  -9   -0.25    7.44
  12   3  -9   -5.77    8.02
 -12  -3   9    7.59    8.61
 -12   3   9   10.53    7.64
  12   3  -7   27.30   10.33
  12  -3  -7   22.41    9.02
 -12  -3   7   31.45   11.90
 -12   3   7   16.66    9.29
 -12  -3   7   40.21   11.69
 -12   3   7   17.78   11.09
 -12   3   5   43.49   13.06
 -12  -4  22  578.35   42.09
 -12   4  22  611.05   40.10
  12   4 -20 1204.76   54.20
  12  -4 -20 1269.62   59.50
 -12   4  20 1124.23   52.14
 -12   4  20 1151.20   61.33
 -12  -4  20 1298.83   63.81
  12   4 -20 1249.65   60.02
  12  -4 -20 1164.79   58.37
  12  -4 -20 1200.13   53.39
  12   4 -20 1232.42   59.24
  12  -4 -18  841.64   44.78
  12  -4 -18  787.45   40.09
  12   4 -18  793.85   44.50
  12   4 -18  847.02   46.12
  12  -4 -18  815.19   45.07
 -12  -4  18  850.43   50.18
 -12   4  18  719.30   46.73
  12  -4 -16  867.53   40.33
  12   4 -16  882.37   45.39
  12  -4 -16  856.06   44.98
  12   4 -16  872.18   45.30
 -12  -4  16  868.54   50.53
 -12   4  16  886.50   49.95
  12  -4 -14  664.53   34.33
  12   4 -14  626.32   37.13
  12  -4 -14  700.01   39.39
  12   4 -14  664.02   38.63
 -12  -4  14  669.94   43.25
 -12   4  14  649.39   41.09
  12   4 -12  733.51   40.70
  12  -4 -12  719.36   36.43
 -12  -4  12  662.69   42.77
 -12   4  12  719.16   42.12
  12  -4 -12  724.48   40.68
  12   4 -12  791.43   42.39
  12   4 -10  558.58   36.92
  12  -4 -10  615.77   35.13
 -12  -4  10  680.30   42.86
 -12   4  10  631.33   38.07
  12  -4 -10  666.41   31.40
  12  -4 -10  579.81   37.43
  12   4 -10  660.42   39.84
 -12  -4   8  637.67   39.98
 -12   4   8  626.28   39.24
  12   4  -8  644.93   40.56
  12  -4  -8  670.35   38.22
 -12   4   8  658.73   42.19
  12  -4  -8  632.83   33.59
 -12  -4   8  610.91   40.55
 -12   4   8  604.36   35.82
  12   4  -6  194.19   24.33
 -12   4   6  183.58   22.83
 -12   4   6  175.75   23.47
 -12  -4   6  208.12   23.46
 -12   4   6  206.25   23.64
 -12  -5  21   10.18    8.96
  12  -5 -19   48.79   14.02
  12  -5 -19    7.21    7.20
  12   5 -19   60.89   14.83
 -12  -5  19   47.73   14.87
 -12   5  19   23.84   10.56
  12   5 -19   22.95   10.40
  12  -5 -19   22.25   10.77
 -12   5  19   17.79    8.26
  12  -5 -17   64.45   11.31
  12   5 -17   84.86   14.47
  12   5 -17   68.91   12.87
  12  -5 -17   81.69   15.09
 -12   5  17   64.60   10.88
 -12  -5  17   78.45   16.30
 -12   5  17   83.62   17.08
  12  -5 -15   15.48    7.92
  12   5 -15   32.83   11.24
  12  -5 -15   24.00   10.03
  12   5 -15   32.92   10.96
 -12   5  15   15.31    7.36
 -12  -5  15   12.11    9.07
 -12   5  15   23.09   11.22
  12  -5 -13   61.86   10.40
  12   5 -13   62.51   13.19
  12  -5 -13   86.60   15.39
  12   5 -13   58.17   12.72
 -12   5  13   63.08   12.53
 -12  -5  13  100.02   18.10
 -12   5  13   82.00   16.17
  12   5 -11   68.14   14.03
  12  -5 -11   40.84   10.04
  12  -5 -11   87.43   15.97
  12   5 -11   60.47   12.89
 -12   5  11   36.01   11.81
 -12  -5  11   43.72   12.87
  12  -5 -11   55.14    9.66
 -12   5  11   55.85   12.36
  12  -5  -9   22.69    8.79
  12   5  -9   16.90    7.73
  12  -5  -9   11.65    8.32
  12   5  -9   16.90   10.26
 -12  -5   9    7.16    6.80
 -12   5   9   13.83    6.14
 -12   5   9   24.29    9.61
 -12  -5   9   10.47    8.28
  12  -5  -9   13.70    5.89
 -12   5   9   25.10    9.71
 -12   5   7   25.52   11.53
 -12  -5   7   37.26   12.17
 -12   5   7   28.67    9.96
  12   5  -7   24.32   10.43
  12  -5  -7   39.77   11.55
 -12   5   7   26.76    9.65
 -12   5   7   38.74   11.63
 -12  -5   7   40.86   11.10
  12  -5  -7   62.91   12.81
 -12   6  22  537.46   38.72
  12  -6 -20  588.56   40.75
 -12  -6  20  616.70   43.68
  12   6 -20  541.50   39.71
 -12   6  20  585.11   40.54
  12   6 -20  515.12   38.26
  12  -6 -20  531.37   38.61
  12  -6 -18  832.57   39.77
  12   6 -18  821.40   46.42
 -12  -6  18  831.79   50.88
 -12   6  18  899.04   52.41
  12   6 -18  826.96   45.45
  12  -6 -18  854.55   46.89
  12  -6 -18  887.75   47.80
  12  -6 -16 1067.03   43.79
  12   6 -16 1070.69   51.53
 -12   6  16 1100.45   46.08
  12  -6 -16 1082.33   50.84
  12   6 -16 1123.83   51.55
 -12  -6  16 1075.35   57.44
 -12   6  16  969.95   53.41
  12  -6 -14 1078.67   43.26
  12   6 -14 1026.25   50.08
 -12   6  14  952.61   46.11
 -12  -6  14 1050.74   56.52
 -12   6  14  987.57   51.64
  12  -6 -14 1037.63   49.48
  12   6 -14 1149.09   51.58
  12  -6 -12 1045.49   49.21
  12   6 -12  998.19   48.57
 -12   6  12  892.83   46.76
  12   6 -12 1050.54   49.94
  12  -6 -12 1043.42   43.37
  12  -6 -12  935.37   40.24
 -12  -6  12 1064.51   55.92
 -12   6  12  916.18   48.59
 -12   6  10  883.57   47.69
  12   6 -10  834.82   46.40
  12  -6 -10  848.35   40.93
  12  -6 -10  829.68   45.11
  12   6 -10  901.70   46.61
  12  -6 -10  878.76   39.83
 -12  -6  10  876.60   50.74
 -12   6  10  795.64   43.11
 -12   6   8  882.13   50.13
  12   6  -8 1038.15   52.65
  12  -6  -8  894.44   44.43
 -12   6   8  829.56   47.31
 -12   6   8  810.76   42.17
  12  -6  -8  969.75   44.44
 -12  -6   8  919.62   51.66
 -12  -6   8  912.20   48.25
 -12   6   8  906.07   47.57
 -12   6   6  672.26   44.80
 -12  -6   6  673.98   42.66
 -12   6   6  639.39   41.53
 -12   6   6  621.14   41.98
  12  -6  -6  706.92   41.18
 -12  -6   6  612.89   41.92
 -12   7  21  104.19   17.89
 -12  -7  21  139.49   21.91
  12  -7 -19    6.13    8.81
  12   7 -19    2.14    7.85
 -12  -7  19   -4.21    8.88
 -12   7  19    2.84    8.20
  12   7 -19    4.65    8.79
  12  -7 -19   16.12   10.56
  12   7 -17   35.91   10.31
  12  -7 -17   15.52    9.38
 -12  -7  17   47.62   13.76
 -12   7  17   19.45   12.09
  12  -7 -17   45.62   10.01
  12   7 -17   46.41   12.58
  12   7 -15  181.55   21.20
  12  -7 -15  195.49   17.35
 -12   7  15  187.00   19.26
  12  -7 -15  168.66   19.82
  12   7 -15  196.86   21.30
 -12  -7  15  152.90   22.16
 -12   7  15  183.06   23.07
  12  -7 -13   -2.75    4.86
  12   7 -13    9.99    9.26
 -12   7  13    4.49    7.21
  12  -7 -13   16.10    8.63
  12   7 -13   19.65    9.37
 -12  -7  13    8.03    9.73
 -12   7  13   -0.89    6.49
  12   7 -11  116.79   18.24
  12  -7 -11  131.79   15.02
 -12   7  11   95.74   15.79
 -12  -7  11  104.15   18.01
  12  -7 -11  122.88   15.16
 -12   7  11  133.76   18.55
  12  -7 -11  112.68   16.68
  12   7 -11  108.90   16.41
  12  -7  -9    3.32    7.61
  12   7  -9    8.88    8.19
 -12  -7   9   11.61    7.74
 -12   7   9    4.69    6.88
 -12   7   9    2.87    7.72
  12  -7  -9   12.08    7.71
  12   7  -9   11.18    9.97
 -12   7   9   18.01    9.21
 -12   7   9   22.20   11.17
 -12  -7   9    8.46    8.08
  12  -7  -9    4.72    5.89
 -12   7   9   19.98    9.40
 -12  -7   7   31.20   11.45
 -12   7   7   65.35   14.95
  12   7  -7   49.20   13.55
  12  -7  -7   33.92   10.32
 -12   7   7   55.06   11.03
 -12   7   7   65.90   14.88
 -12  -7   7   51.11   12.87
  12  -7  -7   46.93   12.07
 -12   7   7   17.61   11.23
  12  -7  -5   70.65   15.17
 -12  -8  20  438.50   36.92
 -12   8  20  401.43   34.14
  12   8 -20  383.16   32.80
  12  -8 -20  391.35   33.17
  12   8 -18 1086.53   55.41
 -12  -8  18 1106.23   59.75
 -12   8  18  966.40   53.29
  12   8 -18 1119.51   53.46
  12  -8 -18 1106.38   53.74
  12  -8 -16 1225.14   54.71
  12   8 -16 1243.88   55.06
  12   8 -16 1256.46   57.85
 -12   8  16 1178.30   48.57
 -12   8  16 1177.00   57.20
 -12  -8  16 1231.85   63.54
  12  -8 -14  899.43   45.32
  12   8 -14  953.21   46.35
  12  -8 -14  850.92   36.38
  12   8 -14  877.95   46.84
 -12   8  14  869.01   42.90
 -12   8  14  741.68   45.20
 -12  -8  14  874.29   52.50
 -12   8  14  876.90   48.64
  12  -8 -12 1206.02   53.74
  12   8 -12 1309.64   55.82
  12  -8 -12 1246.68   46.90
  12   8 -12 1333.82   58.94
 -12   8  12 1215.65   54.86
 -12   8  12 1230.27   56.49
 -12   8  12 1232.06   56.56
  12  -8 -12 1268.87   51.20
 -12  -8  12 1253.16   62.89
 -12   8  12 1179.91   55.82
  12  -8 -10 1360.09   57.90
  12   8 -10 1150.60   54.06
 -12   8  10 1217.76   57.15
  12   8 -10 1198.31   57.30
  12  -8 -10 1242.25   49.38
  12  -8 -10 1326.03   53.53
 -12   8  10 1193.44   57.11
 -12   8  10 1138.96   53.24
 -12  -8  10 1311.89   64.05
 -12   8   8  813.59   48.37
 -12  -8   8  896.47   47.91
 -12   8   8  836.51   45.57
 -12   8   8  829.84   48.48
 -12   8   8  869.79   43.40
  12  -8  -8  978.80   47.31
 -12  -8   8  893.70   51.92
  12   8  -8  873.57   49.96
  12  -8  -8  874.60   43.12
  12  -8  -6 1218.49   57.84
 -12  -8   6 1209.33   61.54
 -12  -8   6 1301.69   60.52
 -12   8   6 1141.91   56.73
  12  -9 -19   47.15   15.12
 -12  -9  19   71.76   16.15
 -12   9  19   47.47   13.78
  12   9 -19   52.59   13.52
  12  -9 -19   69.54   14.95
  12   9 -17    3.16    8.07
 -12  -9  17   -0.30    9.05
 -12   9  17   -2.20    9.06
  12   9 -17   10.39    6.78
  12  -9 -17   -2.39    6.53
  12  -9 -15    9.39    7.86
  12   9 -15    6.52    7.93
 -12   9  15    4.95    5.63
  12   9 -15    4.50    7.25
 -12   9  15    0.89    8.98
 -12   9  15   14.29    8.76
 -12  -9  15   18.00   11.10
  12  -9 -13    5.80    7.61
  12   9 -13   -2.11    6.72
 -12   9  13    5.66    6.41
  12   9 -13   10.55    8.19
 -12   9  13   -1.45    7.72
 -12   9  13    7.06    7.24
 -12  -9  13   14.13   11.89
  12  -9 -11   48.68   12.35
  12   9 -11   27.78   10.12
 -12   9  11   27.87   10.72
  12   9 -11   58.55   13.58
 -12   9  11   22.85    9.92
 -12   9  11   34.17   10.71
  12  -9 -11   61.79   12.07
 -12  -9  11   34.41   12.95
 -12  -9   9    1.01    6.92
 -12   9   9   10.82    7.08
  12  -9  -9    8.63    8.21
  12   9  -9   24.66    9.83
 -12   9   9    7.82    9.58
  12   9  -9   10.00   10.37
  12  -9  -9    8.39    7.37
 -12  -9   9   14.13    7.37
 -12   9   9    2.68    7.71
 -12   9   9    3.88    7.97
 -12  -9   7   29.41   12.41
  12  -9  -7   25.79   10.09
 -12   9   7   15.59    8.22
 -12  -9   7   22.81   10.50
 -12   9   7   31.26   10.34
  12  10 -18  568.85   40.07
 -12 -10  18  581.06   43.83
 -12  10  18  505.73   38.06
  12  10 -18  551.25   37.19
  12 -10 -18  558.51   37.58
  12  10 -16  639.87   41.51
 -12 -10  16  679.91   47.69
 -12  10  16  630.28   36.88
 -12  10  16  627.33   42.10
  12  10 -16  603.42   37.55
  12 -10 -16  609.71   37.79
  12 -10 -14  464.16   32.28
  12  10 -14  533.36   34.13
  12  10 -14  523.61   36.64
 -12  10  14  488.10   32.15
 -12  10  14  426.59   31.68
 -12  10  14  461.89   34.92
 -12 -10  14  474.62   39.27
  12 -10 -12 1340.79   56.92
  12  10 -12 1353.44   56.87
 -12  10  12 1179.96   55.25
  12  10 -12 1369.26   61.03
 -12  10  12 1254.88   57.93
 -12  10  12 1267.05   58.55
  12 -10 -12 1395.17   57.27
 -12 -10  12 1349.77   66.70
  12 -10 -10  739.00   42.55
  12  10 -10  779.33   42.89
 -12 -10  10  679.68   40.57
 -12  10  10  639.49   38.49
 -12  10  10  673.96   42.82
  12  10 -10  733.98   44.89
  12 -10 -10  765.40   42.22
 -12  10  10  625.18   41.41
 -12  10  10  707.44   41.34
 -12 -10  10  740.41   47.83
 -12 -10   8  388.64   31.01
 -12  10   8  326.16   28.15
  12 -10  -8  395.31   31.63
  12  10  -8  378.89   31.48
 -12  10   8  331.19   31.09
  12  10  -8  373.18   33.54
 -12 -10   8  426.22   36.22
 -12  10   8  358.42   32.17
  12 -10  -8  410.79   31.93
 -12  10   8  358.61   28.73
 -12 -10   6  507.58   40.38
  12 -10  -6  518.90   38.72
  12  11 -19   12.11    9.51
  12 -11 -19    7.95    8.68
  12  11 -17   -6.97    8.31
 -12 -11  17   -1.18   10.30
 -12  11  17    2.96    7.44
  12  11 -17   23.58   11.42
  12 -11 -17    4.78    9.26
  12 -11 -15   16.71    9.10
  12  11 -15   -1.35    6.75
 -12  11  15   -0.14    5.95
  12  11 -15   19.79    9.05
 -12  11  15   10.61    9.48
 -12  11  15   -2.14    7.15
 -12 -11  15   13.40   11.19
  12 -11 -13   32.29   10.74
  12  11 -13   50.03   11.59
 -12  11  13   46.95   12.11
  12  11 -13   37.51   12.73
 -12  11  13   42.77   12.55
 -12  11  13   42.09   12.02
 -12 -11  13   63.47   16.54
  12 -11 -11   22.99    9.86
  12  11 -11   49.26   12.76
 -12  11  11    7.83    8.93
  12  11 -11   37.39   12.55
 -12  11  11   30.81   12.21
 -12  11  11   29.87   11.94
  12 -11 -11   25.09    9.38
 -12 -11  11   29.56   11.79
 -12 -11   9    9.13    6.26
 -12  11   9    2.40    6.56
  12 -11  -9   -3.81    8.08
  12  11  -9    4.76    8.77
 -12  11   9   -7.87    9.30
  12  11  -9    4.25    8.28
 -12  11   9   19.88    9.06
 -12  11   9    1.54    8.25
  12 -11  -9    0.54    6.97
 -12 -11   9  -11.21   10.28
  12 -11  -7    4.75   11.40
 -12 -11   7   12.97    8.50
 -12  11   7   -1.23    6.70
  12 -11  -7   -4.14    8.29
 -12 -11   7   -0.86    8.86
  12  12 -18  488.94   35.16
  12 -12 -18  558.13   37.78
 -12 -12  16  331.63   34.44
  12  12 -16  345.62   31.18
 -12  12  16  335.25   31.43
  12  12 -16  331.75   27.47
  12 -12 -16  336.32   28.07
  12 -12 -14  366.91   28.80
  12  12 -14  359.07   28.27
 -12  12  14  405.62   31.59
 -12  12  14  390.89   29.66
  12  12 -14  405.11   32.81
 -12  12  14  383.69   30.58
 -12  12  14  394.30   32.95
 -12 -12  14  389.92   36.91
  12 -12 -12  411.41   30.72
  12  12 -12  456.91   31.38
 -12  12  12  361.94   29.93
 -12  12  12  321.39   26.35
  12  12 -12  403.13   32.95
 -12  12  12  407.14   32.67
 -12  12  12  430.24   34.12
 -12 -12  12  460.68   38.81
  12 -12 -10  397.95   30.68
  12  12 -10  379.25   30.13
 -12 -12  10  397.56   30.43
 -12  12  10  356.67   28.37
  12  12 -10  392.05   33.23
 -12  12  10  440.82   35.17
 -12  12  10  423.29   32.21
  12 -12 -10  344.45   30.11
 -12 -12  10  353.35   34.53
 -12  12  10  340.37   30.08
  12 -12  -8  152.24   20.79
 -12  12   8  137.28   17.85
 -12 -12   8  137.74   19.68
 -12  12   8  132.04   18.16
  12 -12  -8  130.44   19.25
  12  12  -8  171.28   21.82
  12  13 -15    7.80    7.78
  12 -13 -15    8.53    7.37
 -12  13  15    5.78    7.63
 -12  13  15    5.28    7.61
  12 -13 -13   38.25   11.45
 -12  13  13   20.33    7.97
  12  13 -13   20.16   10.68
 -12  13  13   13.48    9.44
 -12  13  13   40.82   12.25
 -12  13  13   13.75    8.49
 -12 -13  13   19.83   11.26
 -12 -13  11   13.94    8.64
  12 -13 -11   26.98    9.68
 -12  13  11    4.82    7.65
  12  13 -11   34.56   12.43
 -12  13  11   16.17   11.06
 -12  13  11   24.02   10.53
  12 -13 -11   14.23    9.64
 -12  13   9   67.83   13.75
  12 -13  -9   49.29   13.04
 -12  14  14  269.00   25.83
 -12  14  14  287.11   26.49
 -12  14  14  295.43   27.70
 -12  14  12  561.98   38.48
 -12  14  12  517.02   37.97
  12 -14 -10  209.65   25.48
 -12  15  13  132.35   18.58
 -12  15  13  147.42   20.44
 -12  15  13  144.60   19.67
 -13   0  21   26.55   12.16
  13   0 -21    7.59    9.99
  13   0 -21    3.69    9.09
  13   0 -19   -6.43    6.91
 -13   0  19  -11.33    9.92
  13   0 -19   -5.67    8.74
  13   0 -19   -6.10    7.14
  13   0 -17    9.87    6.65
  13   0 -17   20.60    9.52
  13   0 -17   -3.87    8.20
 -13   0  17    3.97    8.15
  13   0 -15    8.85    8.11
  13   0 -15   22.63    9.79
 -13   0  15    8.23    8.95
  13   0 -13   20.81   10.12
  13   0 -13    2.67    8.10
 -13   0  13    9.73    9.41
  13   0 -11   -4.73    9.48
  13   0 -11   13.23   11.75
 -13   0  11   16.36    9.63
  13   0  -9    8.23    9.03
 -13   0   9    5.11    8.64
 -13   0   9    1.34    7.87
  13   0  -7   -2.85    9.48
  13  -1 -22  816.81   48.14
 -13   1  22  828.57   48.38
  13   1 -22  889.61   49.49
  13  -1 -22  888.37   50.07
  13  -1 -20  953.37   49.00
  13   1 -20 1044.56   52.15
  13   1 -20  905.57   46.21
  13  -1 -20 1005.27   49.63
  13   1 -20 1047.56   54.89
  13  -1 -20 1011.79   53.88
 -13   1  20  938.24   55.31
 -13  -1  20 1052.48   58.28
  13  -1 -18  898.41   45.35
  13   1 -18  890.19   46.13
  13   1 -18  949.70   42.84
  13  -1 -18  849.86   42.44
  13   1 -18  866.49   47.53
  13  -1 -18  801.07   45.99
 -13   1  18  943.49   53.67
 -13  -1  18  918.00   53.28
  13  -1 -16 1551.67   64.83
  13   1 -16 1583.35   65.58
 -13  -1  16 1637.84   71.06
 -13   1  16 1593.38   70.17
  13  -1 -16 1616.24   61.42
  13   1 -16 1614.07   63.01
  13  -1 -14 1300.63   57.82
  13   1 -14 1287.92   57.72
 -13  -1  14 1291.13   61.52
 -13   1  14 1345.00   62.22
  13  -1 -14 1327.59   54.72
  13   1 -14 1251.70   54.54
  13  -1 -12 1558.95   64.94
  13   1 -12 1524.54   64.47
 -13  -1  12 1529.41   66.39
 -13   1  12 1541.15   66.15
  13   1 -12 1555.87   63.18
  13  -1 -12 1578.66   62.56
 -13  -1  10 1991.25   75.25
 -13   1  10 1902.74   72.94
 -13  -1  10 1739.15   71.72
 -13   1  10 1678.99   70.44
  13  -1 -10 1842.29   73.67
  13   1 -10 1918.09   75.02
  13   1 -10 1848.10   71.89
  13  -1 -10 1883.50   71.31
 -13  -1   8  675.74   43.73
 -13   1   8  635.00   42.44
  13   1  -8  706.00   43.77
  13  -1  -8  745.21   44.42
 -13   2  21   36.11   13.36
 -13  -2  21   21.57   10.30
  13  -2 -21   25.90   10.19
  13  -2 -21   37.82   11.54
  13   2 -21   17.74    9.50
  13  -2 -19    9.41    7.58
 -13   2  19    3.86    8.88
 -13  -2  19   14.30   10.53
  13   2 -19    7.84    9.13
  13  -2 -19   -1.10    7.90
  13  -2 -19   14.90    9.75
  13   2 -19   17.13    9.98
  13  -2 -17   45.16   11.10
 -13  -2  17   12.96    8.45
 -13   2  17   16.54   10.54
  13  -2 -17   12.85    8.02
  13   2 -17   40.49   12.31
  13  -2 -17   17.33    7.34
  13   2 -17   15.91    8.09
 -13  -2  15   95.60   17.71
 -13   2  15   93.71   17.46
  13  -2 -15   60.90   13.84
  13   2 -15  107.03   17.22
  13  -2 -15   74.46   13.16
  13   2 -15   65.57   13.75
 -13  -2  13   21.72   10.31
 -13   2  13   23.67    9.92
  13  -2 -13   12.69    8.44
  13   2 -13    8.40    8.73
  13   2 -13    7.25    7.54
  13  -2 -13   16.03    8.99
 -13  -2  11   17.26   10.52
 -13   2  11   15.73   10.37
  13  -2 -11    9.74    8.76
  13   2 -11   31.49   12.00
  13   2 -11   -2.61    7.97
  13  -2 -11   18.02    9.60
 -13  -2   9   36.55   12.31
 -13   2   9   -0.92    6.41
 -13  -2   9   22.41   11.34
 -13   2   9    7.98    7.87
  13  -2  -9   11.04    9.16
  13   2  -9   10.02   10.04
  13  -2  -7   71.86   15.35
 -13   3  22  547.09   37.89
  13  -3 -20  447.58   32.51
  13   3 -20  502.86   36.74
 -13   3  20  517.40   40.98
 -13  -3  20  418.11   36.85
  13   3 -20  506.13   37.68
  13  -3 -20  513.87   37.68
  13  -3 -20  502.89   35.63
  13  -3 -18  589.45   35.70
  13   3 -18  696.38   41.56
 -13  -3  18  781.37   48.75
 -13   3  18  693.19   46.04
  13   3 -18  683.11   41.90
  13  -3 -18  643.30   41.23
  13  -3 -18  727.23   39.67
  13  -3 -16 1056.82   51.74
  13   3 -16 1095.33   52.58
  13  -3 -16  997.41   45.77
  13   3 -16 1011.82   49.91
 -13  -3  16 1049.22   56.53
 -13   3  16 1108.74   57.43
  13  -3 -14  378.30   30.31
  13   3 -14  422.94   31.50
  13  -3 -14  364.24   27.06
  13   3 -14  412.07   31.17
 -13  -3  14  419.64   34.96
 -13   3  14  483.57   35.59
  13  -3 -12  342.86   29.24
  13   3 -12  376.45   30.67
 -13  -3  12  332.55   30.50
 -13   3  12  337.91   29.65
  13  -3 -12  347.10   26.98
  13   3 -12  360.13   29.82
 -13  -3  10  916.86   49.83
 -13   3  10  981.17   50.88
  13  -3 -10  968.16   51.46
  13   3 -10  991.03   52.24
 -13  -3  10  969.84   52.37
 -13   3  10  938.31   48.54
  13   3 -10  983.34   51.49
  13  -3 -10  990.55   49.08
 -13   3   8  282.48   29.98
  13   3  -8  260.72   27.89
  13  -3  -8  274.99   26.71
 -13  -3   8  226.69   25.25
 -13   3   8  240.00   26.44
 -13  -3   8  257.71   26.53
  13  -4 -21   46.89   12.15
 -13   4  21   19.03    8.77
 -13  -4  21   44.66   14.27
  13  -4 -21   31.76   11.59
  13  -4 -19   20.20    8.50
  13   4 -19   15.54    8.20
  13   4 -19   31.64   13.34
  13  -4 -19   40.56   12.47
 -13  -4  19   44.60   16.00
 -13   4  19   15.18   10.05
  13  -4 -19   11.35    9.60
 -13  -4  17   63.47   16.40
 -13   4  17   80.26   16.13
  13  -4 -17   38.30   11.69
  13   4 -17   68.38   14.38
  13  -4 -17   49.42   10.71
  13   4 -17   55.26   12.63
 -13  -4  15   22.72   11.37
 -13   4  15   10.03    6.96
  13  -4 -15    9.91    7.18
  13   4 -15    6.53    8.19
  13  -4 -15    5.99    6.63
  13   4 -15   13.33    9.03
 -13  -4  13   56.74   15.81
 -13   4  13   42.85   11.68
  13  -4 -13   36.35   10.75
  13   4 -13   51.35   12.42
  13   4 -13   43.60   12.16
  13  -4 -13   58.55   11.89
 -13  -4  11   22.77   10.52
 -13   4  11    4.41    7.43
  13  -4 -11   30.34    9.81
  13   4 -11   18.75   10.99
  13   4 -11   27.34   11.09
  13  -4 -11   18.20    8.33
 -13  -4   9    4.36    7.85
 -13   4   9    9.82    7.42
  13  -4  -9    2.91    7.81
  13   4  -9   14.72   11.54
 -13  -4   9    7.39    7.74
 -13   4   9    4.11    8.29
  13  -4  -7   28.12   10.72
  13  -5 -20  395.64   29.28
  13   5 -20  374.28   32.11
  13  -5 -20  346.67   30.60
  13   5 -20  342.53   30.95
  13  -5 -20  351.33   31.88
 -13  -5  20  442.41   37.09
 -13   5  20  344.92   33.78
  13   5 -18  417.40   33.01
  13  -5 -18  483.95   35.45
 -13  -5  18  492.14   39.29
 -13   5  18  382.06   34.67
  13  -5 -18  408.34   28.41
  13   5 -18  463.58   34.84
 -13   5  16  651.58   37.95
  13  -5 -16  756.98   43.10
  13   5 -16  728.85   42.64
 -13  -5  16  766.99   48.71
 -13   5  16  740.62   46.19
  13  -5 -16  729.47   37.13
  13   5 -16  743.15   43.02
 -13   5  14  440.05   32.28
  13  -5 -14  441.08   32.82
  13   5 -14  514.05   35.54
 -13  -5  14  429.98   36.27
 -13   5  14  515.76   36.81
  13  -5 -14  473.22   30.03
  13   5 -14  512.42   35.45
 -13   5  12  674.78   42.24
  13   5 -12  621.12   39.84
  13  -5 -12  670.64   36.93
  13  -5 -12  710.55   42.23
  13   5 -12  587.04   38.93
 -13  -5  12  651.69   44.14
 -13   5  12  595.25   39.36
 -13  -5  10  311.75   28.65
 -13   5  10  333.76   29.26
  13  -5 -10  337.07   30.31
  13   5 -10  287.03   27.97
 -13   5  10  345.87   31.71
  13   5 -10  336.85   30.40
  13  -5 -10  283.10   25.50
 -13  -5  10  334.77   31.50
 -13   5  10  326.71   27.54
  13  -5  -8  496.47   35.22
 -13  -5   8  466.59   37.13
 -13  -5   8  480.76   36.91
 -13   5   8  507.97   37.56
  13   6 -19   76.80   15.54
  13   6 -19   58.64   14.43
  13  -6 -19   89.37   16.76
 -13  -6  19   74.39   15.80
 -13   6  19   71.78   17.80
  13  -6 -19   84.69   16.13
  13  -6 -17  107.43   14.35
  13   6 -17   95.73   17.03
  13  -6 -17   84.12   15.86
  13   6 -17  117.01   18.27
 -13   6  17   89.62   13.88
 -13  -6  17   78.80   17.45
 -13   6  17   57.16   14.61
  13  -6 -15    0.95    6.35
  13   6 -15   14.96    7.57
  13  -6 -15   10.45    8.26
  13   6 -15    2.13    7.24
 -13   6  15   15.71    9.36
 -13  -6  15   19.68   11.87
 -13   6  15   10.85   10.25
  13   6 -13   -4.82    8.72
  13  -6 -13   -0.33    5.62
  13  -6 -13    2.68    7.26
  13   6 -13   -0.08    6.91
 -13   6  13   -1.48    8.08
 -13  -6  13    5.40   10.17
 -13   6  13   -5.99    9.14
  13   6 -11   34.88   12.42
  13  -6 -11   16.54    7.76
  13  -6 -11   40.36   12.19
  13   6 -11   42.60   12.91
 -13   6  11   22.26   10.40
 -13  -6  11   19.70    9.74
 -13   6  11   31.92    9.95
 -13   6   9  158.35   22.71
  13  -6  -9  186.46   23.65
  13   6  -9  160.06   22.20
 -13  -6   9  154.88   20.73
 -13   6   9  163.81   20.88
  13  -6  -9  145.16   19.38
  13   6  -9  175.16   23.25
 -13  -6   9  153.69   22.01
 -13   6   9  139.38   18.20
 -13   6   9  148.00   21.23
  13  -6  -7    1.82    7.73
  13  -7 -20  606.80   41.80
 -13  -7  20  598.71   44.69
 -13   7  20  489.08   38.79
  13   7 -20  648.36   42.52
  13  -7 -20  576.58   40.73
  13   7 -18 1146.57   55.47
  13  -7 -18 1064.26   53.49
  13   7 -18 1074.99   55.17
 -13  -7  18 1124.39   61.98
 -13   7  18 1027.96   58.02
  13   7 -16  896.01   48.83
 -13   7  16  896.54   44.85
  13  -7 -16  983.68   49.77
  13   7 -16  874.25   47.14
 -13  -7  16  938.87   55.41
 -13   7  16  872.42   51.92
  13  -7 -14 1120.01   45.17
  13   7 -14  885.65   49.17
 -13   7  14  876.28   47.65
 -13  -7  14 1030.44   58.29
 -13   7  14 1015.91   53.93
  13  -7 -14 1075.81   52.00
  13   7 -14 1026.28   50.77
  13  -7 -12 1143.55   54.82
  13   7 -12 1155.17   54.48
 -13   7  12 1058.96   54.51
  13   7 -12 1210.53   57.34
  13  -7 -12 1116.41   47.51
 -13   7  12  964.70   51.19
 -13  -7  12 1117.57   60.97
 -13   7  12 1122.09   54.62
 -13  -7  10  879.39   49.19
 -13   7  10  879.11   48.36
  13  -7 -10  831.14   47.81
  13   7 -10  930.29   50.66
 -13   7  10  903.13   51.79
  13   7 -10  873.36   50.52
  13  -7 -10  883.34   44.69
 -13   7  10  832.28   49.81
 -13   7  10  754.94   44.22
 -13  -7  10  974.48   55.76
 -13   7  10  862.22   45.25
  13  -7  -8  711.85   41.86
 -13  -7   8  753.01   46.54
 -13  -7   8  718.79   47.70
 -13  -8  19    5.34   10.52
 -13   8  19   -2.12    8.63
  13   8 -19  -12.67    9.51
  13  -8 -19   12.53    8.17
  13   8 -17    3.73    8.04
 -13  -8  17   -5.18    9.95
 -13   8  17   -2.63    8.07
  13  -8 -17    2.65    7.99
  13   8 -17   24.86   10.15
  13  -8 -15    3.52    8.02
  13   8 -15    9.74    8.46
 -13   8  15   32.61   10.55
  13   8 -15    4.28    9.35
 -13   8  15    8.50    9.12
 -13  -8  15    8.69    9.66
 -13   8  15    7.59    8.02
  13  -8 -13   23.62   10.39
  13   8 -13   18.09   10.45
 -13   8  13   23.16   11.00
  13   8 -13   40.53   12.95
 -13   8  13    9.06   10.38
 -13   8  13   18.41    8.58
 -13  -8  13   19.92   12.89
 -13   8  13    7.93    8.07
  13  -8 -11   58.00   14.24
  13   8 -11   63.82   14.97
 -13   8  11   39.81   12.43
  13   8 -11   30.21   11.06
 -13   8  11   34.67    9.95
 -13   8  11   48.09   13.96
 -13  -8  11   27.11   11.43
  13  -8  -9    2.72    6.60
 -13   8   9   -1.94    7.74
  13  -8  -9   -9.09    8.29
  13   8  -9   18.28   10.70
 -13  -8   9   -0.07    7.12
 -13   8   9    1.18    8.42
 -13  -8   9    1.73    8.00
 -13  -9  18  581.14   45.37
 -13   9  18  635.74   43.92
  13   9 -18  622.40   40.23
  13  -9 -18  565.87   38.75
  13  -9 -16  485.94   34.67
  13   9 -16  559.09   36.75
  13   9 -16  611.12   40.82
 -13   9  16  604.82   36.05
 -13   9  16  517.96   35.76
 -13   9  16  488.07   38.83
 -13  -9  16  547.69   43.37
  13  -9 -14  916.64   47.83
  13   9 -14  964.39   48.92
  13   9 -14  873.88   49.44
 -13   9  14  873.43   46.84
 -13   9  14  829.71   47.29
 -13   9  14  949.43   51.62
 -13  -9  14  927.95   56.93
  13  -9 -12 1000.26   50.58
  13   9 -12  980.31   50.50
 -13   9  12  823.44   48.74
  13   9 -12  952.86   52.32
 -13   9  12  869.66   50.35
 -13   9  12  853.30   48.91
  13  -9 -12 1000.21   47.19
 -13  -9  12  981.59   58.22
  13  -9 -10  538.28   38.06
  13   9 -10  493.92   36.86
 -13  -9  10  437.10   33.89
 -13   9  10  480.29   35.37
  13  -9 -10  552.95   35.71
 -13   9  10  448.00   33.77
 -13  -9  10  526.96   41.76
 -13   9  10  462.55   36.94
 -13  -9   8  934.38   56.57
  13  10 -19    9.99    9.93
  13 -10 -19    3.80    9.68
 -13 -10  17   25.72   14.18
 -13  10  17   27.11   10.06
  13 -10 -17    6.55    9.15
  13  10 -17   27.22   10.87
  13 -10 -15   17.11   10.52
  13  10 -15   28.03   11.39
 -13  10  15    9.22    8.94
 -13  10  15   33.48   11.19
 -13  10  15   13.05    7.56
 -13 -10  15   28.75   13.10
  13 -10 -13   18.02    9.86
  13  10 -13   17.82    9.53
 -13  10  13    2.71    7.09
  13  10 -13   17.17   10.21
 -13  10  13   16.13    9.06
 -13  10  13   16.97   10.02
 -13 -10  13   33.27   13.55
 -13  10  11   23.72    9.79
 -13  10  11   31.16   11.07
 -13  10  11    9.69    8.40
  13 -10 -11   19.23    9.29
 -13 -10  11    6.12   10.65
 -13 -10  11   26.69    9.79
 -13  10  11   29.31   10.67
  13 -10 -11   37.88   11.81
  13  10 -11   36.41   11.20
 -13  10   9   -2.45    6.73
  13 -10  -9   10.78    8.58
 -13 -10   9   -3.05    7.30
 -13  10   9   16.50    8.82
  13 -10  -9   -6.16   10.28
  13  10  -9   18.52   10.25
  13  11 -18  701.04   42.71
  13 -11 -18  750.81   44.61
  13  11 -16  245.62   24.30
 -13  11  16  228.36   22.63
 -13  11  16  218.25   23.55
  13 -11 -16  292.99   26.88
  13 -11 -14  649.34   40.31
  13  11 -14  648.63   39.77
  13  11 -14  726.00   45.46
 -13  11  14  625.56   41.57
 -13  11  14  660.87   44.11
 -13 -11  14  624.45   47.63
 -13  11  14  584.33   39.27
 -13  11  12  397.39   33.34
  13 -11 -12  458.31   33.75
  13  11 -12  482.40   34.53
 -13  11  12  437.63   35.72
 -13  11  12  440.05   34.55
  13 -11 -12  452.82   33.62
 -13 -11  10  264.86   26.95
 -13  11  10  280.37   27.25
  13 -11 -10  292.40   27.96
  13  11 -10  299.10   28.84
  13 -11 -10  316.09   28.94
 -13  11  10  242.40   25.49
  13  12 -19   -0.37    7.67
  13 -12 -19   -7.10   10.21
  13  12 -17   13.05    8.86
  13 -12 -17   -1.03    7.25
  13 -12 -15   12.18    7.66
  13  12 -15   31.94   10.66
 -13  12  15    6.82    7.23
 -13  12  15   32.10   10.97
 -13  12  15   17.59    9.23
 -13  12  13   54.01   13.60
  13 -12 -13   69.31   13.81
  13  12 -13   69.40   14.54
 -13  12  13   85.99   16.89
 -13 -12  11  -18.38    9.27
 -13  12  11   -1.25    6.78
  13 -12 -11    7.51    7.82
  13  12 -11    4.81    7.98
  13 -12 -11    4.32    7.75
  13 -12  -9    4.17    8.08
 -13  13  16  158.08   21.94
 -13  13  14  640.53   41.15
 -13  13  14  704.21   44.09
 -13  13  14  564.04   38.47
  13 -13 -12  477.78   36.55
 -13  14  15   10.81    8.73
 -13  14  15   14.63    9.10
  14   0 -20  614.86   42.54
 -14   0  20  639.33   46.00
  14   0 -20  610.39   39.40
  14   0 -18 1369.25   61.96
 -14   0  18 1286.16   64.82
  14   0 -18 1313.61   57.75
  14   0 -16  848.89   48.02
 -14   0  16  931.72   53.38
  14   0 -16  918.54   47.11
  14   0 -14 1223.50   58.74
 -14   0  14 1295.77   62.38
  14   0 -14 1208.10   55.55
  14   0 -12 1418.53   65.40
 -14   0  12 1411.43   64.65
  14   0 -12 1458.08   63.27
 -14   0  10  484.97   35.70
  14   0 -10  566.43   39.99
  14  -1 -21   17.65    8.97
  14  -1 -21   30.18   11.30
  14   1 -21   13.16    8.85
  14  -1 -19   -4.18    8.32
  14   1 -19    8.28    7.34
  14  -1 -19   11.71    7.89
  14   1 -19   -3.32    7.14
  14  -1 -19    7.72    6.89
 -14   1  19    3.21   10.91
 -14  -1  19  -10.93   11.00
  14  -1 -17   35.24   11.67
  14   1 -17    9.58    8.92
 -14  -1  17   16.38   10.71
 -14   1  17   19.82   10.89
  14  -1 -17   16.20   11.57
  14   1 -17   13.67    9.27
  14  -1 -15   46.48   11.56
  14   1 -15   24.74   11.00
 -14  -1  15   32.83   12.40
 -14   1  15   59.79   15.16
  14  -1 -15   22.49    9.86
  14   1 -15   24.25   10.53
  14   1 -13  163.22   20.78
  14  -1 -13  134.53   18.95
 -14  -1  13  147.85   21.56
 -14   1  13  125.54   20.21
  14  -1 -13  155.85   21.86
  14   1 -13  111.76   19.00
  14   1 -11   33.09   11.59
  14  -1 -11   34.98   12.09
  14   1 -11   35.22   12.55
 -14  -1  11   47.18   13.98
 -14   1  11   39.21   14.02
  14  -1 -11   35.19   11.90
 -14  -1  11   42.68   12.81
 -14   1  11   32.98   11.57
  14  -2 -22  417.15   33.35
  14  -2 -22  343.14   30.27
  14  -2 -20  586.97   37.51
  14  -2 -20  614.10   42.04
 -14   2  20  678.84   47.83
 -14  -2  20  624.39   45.28
  14  -2 -20  645.07   39.51
  14   2 -20  601.55   40.21
  14  -2 -18 1204.14   51.15
  14  -2 -18 1096.17   55.76
  14   2 -18 1192.35   57.96
 -14  -2  18 1094.45   60.04
 -14   2  18 1243.63   63.48
  14  -2 -18 1141.21   52.18
  14   2 -18 1118.78   54.30
  14  -2 -16  720.97   43.95
  14   2 -16  793.11   46.11
 -14  -2  16  799.88   49.74
 -14   2  16  778.73   48.48
  14  -2 -16  703.26   40.16
  14   2 -16  783.48   44.09
  14  -2 -14  471.99   35.39
  14   2 -14  498.32   36.16
 -14  -2  14  416.27   35.34
 -14   2  14  464.34   36.39
  14   2 -14  413.12   32.24
  14  -2 -14  471.32   32.90
  14  -2 -12  864.48   49.77
  14   2 -12  905.87   50.78
 -14  -2  12  959.52   52.98
 -14   2  12  781.02   46.50
  14   2 -12  968.49   51.02
  14  -2 -12  803.44   45.48
 -14  -2  10  524.21   38.73
  14   2 -10  578.24   40.84
  14  -2 -10  530.36   38.58
  14  -3 -21   -1.81    7.80
  14  -3 -21   -6.56    8.87
  14  -3 -19   77.53   14.40
  14   3 -19   81.47   16.18
  14   3 -19   77.22   16.33
  14  -3 -19   80.19   16.56
  14  -3 -19   75.78   14.05
 -14  -3  19   69.01   16.75
 -14   3  19   72.39   16.06
  14  -3 -17    3.65    7.19
  14   3 -17   -0.02    7.39
 -14  -3  17   21.81   11.77
 -14   3  17    4.20    9.67
  14  -3 -17    4.20    9.31
  14   3 -17    5.89    9.26
  14  -3 -15   -9.05    7.96
  14   3 -15   11.64    8.59
 -14  -3  15   -3.61    7.79
 -14   3  15    9.56    8.88
  14  -3 -15   13.32    8.73
  14   3 -15   11.08   10.07
  14   3 -13   70.13   15.60
  14  -3 -13   79.71   14.27
 -14  -3  13   68.54   15.15
 -14   3  13   59.52   14.86
  14  -3 -13   69.42   14.91
  14   3 -13   59.69   12.50
  14   3 -11    3.77    8.07
  14  -3 -11   15.68   10.02
 -14  -3  11   11.70   10.85
 -14   3  11    6.88    7.94
 -14  -3  11    5.92    7.60
 -14   3  11   -2.79    7.65
  14  -3 -11    5.97    8.22
  14   3 -11    8.39    8.91
  14  -3  -9   26.81   10.51
  14  -4 -20  530.70   34.80
  14   4 -20  522.10   38.44
  14  -4 -20  507.64   36.00
  14  -4 -18  638.39   41.64
  14   4 -18  726.51   44.01
 -14  -4  18  748.11   49.67
 -14   4  18  608.88   44.34
  14  -4 -18  654.08   37.39
  14   4 -18  673.86   42.31
  14  -4 -16  389.88   31.97
  14   4 -16  399.37   32.52
 -14  -4  16  440.53   37.61
 -14   4  16  338.49   32.06
  14  -4 -16  419.46   29.47
  14   4 -16  376.90   31.34
  14  -4 -14  529.16   37.65
  14   4 -14  514.89   37.18
 -14  -4  14  569.93   41.87
 -14   4  14  530.32   38.53
  14  -4 -14  516.76   33.72
  14   4 -14  556.56   38.12
 -14   4  12  791.52   48.79
  14  -4 -12  904.63   51.12
  14   4 -12  963.76   52.52
  14   4 -12  829.79   48.64
  14  -4 -12  890.78   46.36
 -14  -4  12  904.30   52.82
 -14   4  12  847.30   48.08
  14  -4 -10  419.03   33.39
 -14  -4  10  413.72   35.25
  14  -5 -21   29.79   11.77
  14  -5 -19   82.02   14.28
  14   5 -19   55.33   15.13
  14   5 -19   55.06   14.00
  14  -5 -19   55.39   14.63
 -14  -5  19   49.03   14.66
 -14   5  19   68.75   16.45
  14  -5 -19   36.60   11.47
  14  -5 -17    5.26    8.65
  14   5 -17   10.82    7.56
 -14   5  17    4.19    7.97
 -14  -5  17   18.73   10.81
 -14   5  17   14.40   11.10
  14  -5 -17   10.85    8.09
  14   5 -17    1.18    8.72
  14  -5 -15    1.38    7.73
  14   5 -15   26.81   12.01
 -14   5  15   39.50   12.72
 -14  -5  15    2.75    7.94
 -14   5  15    0.72    7.24
  14  -5 -15   29.03    9.53
  14   5 -15    8.15    9.41
  14  -5 -13   45.49   13.79
  14   5 -13   55.49   13.94
 -14   5  13   35.80   12.52
 -14  -5  13   50.92   14.76
 -14   5  13   42.55   12.27
  14   5 -13   60.17   15.01
  14  -5 -13   29.72    9.02
 -14  -5  11   37.29   13.07
 -14   5  11   40.33   13.64
  14  -5 -11   26.70   11.00
  14   5 -11   39.76   14.34
  14  -5 -11   55.60   12.47
 -14  -5  11   31.04   12.47
 -14   5  11   51.48   12.32
 -14   5  11   46.89   14.13
  14  -5  -9   -4.59    8.17
 -14  -5   9   10.15   10.08
  14  -6 -20  391.17   32.87
  14  -6 -18  564.03   39.06
  14   6 -18  588.27   39.92
  14   6 -18  620.54   41.31
 -14  -6  18  581.64   44.48
 -14   6  18  540.80   42.06
  14  -6 -16  779.18   39.33
  14   6 -16  734.54   45.10
 -14   6  16  709.79   42.74
  14  -6 -16  653.33   42.51
  14   6 -16  802.74   46.35
 -14  -6  16  818.85   53.12
 -14   6  16  762.76   49.12
  14  -6 -14  647.48   36.69
  14   6 -14  653.89   42.88
 -14   6  14  671.85   43.36
  14  -6 -14  683.81   43.08
  14   6 -14  730.46   44.84
 -14   6  14  594.44   41.92
  14  -6 -12  726.64   40.82
  14   6 -12  788.75   47.84
 -14   6  12  779.98   48.48
 -14  -6  12  849.92   52.93
 -14   6  12  720.85   44.41
  14  -6 -12  756.64   46.43
  14   6 -12  769.40   46.71
  14  -6 -10  419.45   32.47
 -14  -6  10  419.56   37.03
 -14   6  10  362.74   31.45
  14   7 -19   65.67   14.34
  14  -7 -19   58.97   13.29
  14   7 -17   -7.08    9.84
 -14   7  17    1.76    7.25
  14  -7 -17   -1.19    8.21
  14   7 -17   28.58   11.15
 -14  -7  17    8.69    9.90
 -14   7  17    4.93   10.74
  14   7 -15    7.44    9.07
 -14   7  15   30.72   11.54
 -14  -7  15   14.13   11.90
 -14   7  15   24.34   11.59
  14  -7 -15   -0.94    8.52
  14   7 -15    3.00    7.53
  14  -7 -13   11.15   10.21
  14   7 -13    4.02    7.50
 -14   7  13   21.99   10.78
  14   7 -13    9.22   10.74
 -14   7  13    3.02    7.71
 -14  -7  13   10.03   10.11
 -14   7  13    0.26    7.87
  14  -7 -11   69.15   13.41
 -14  -7  11   86.35   19.19
 -14   7  11   62.13   15.42
 -14  -7  11   65.72   15.51
  14  -7 -11   68.71   16.29
  14   7 -11   58.86   14.90
  14  -7  -9   20.24   10.14
 -14  -7   9   -2.85    8.57
  14  -8 -18  656.28   42.37
  14   8 -18  744.11   44.62
  14  -8 -16  975.13   52.01
  14   8 -16  982.24   52.00
  14   8 -16 1129.16   57.49
 -14   8  16 1072.75   57.60
 -14  -8  16 1071.20   62.85
 -14   8  16 1044.66   57.35
 -14   8  16  970.50   50.25
  14  -8 -14 1144.42   56.23
  14   8 -14 1140.44   56.45
 -14   8  14 1101.97   56.30
 -14   8  14  960.36   53.93
 -14   8  14  971.60   54.46
 -14  -8  14 1197.61   66.16
 -14   8  14 1025.07   55.61
 -14  -8  12  705.12   45.04
 -14   8  12  684.05   44.00
 -14  -8  12  864.26   55.35
 -14   8  12  740.27   45.70
  14  -8 -12  760.24   46.85
  14   8 -12  790.55   47.12
 -14   8  10  645.06   41.34
 -14   9  17   42.13   12.20
 -14   9  17   39.45   11.11
  14  -9 -17   31.05   11.51
  14   9 -17   33.10   13.38
 -14   9  15   15.08   10.66
 -14   9  15   31.32   10.69
  14  -9 -15   33.03   11.43
  14   9 -15   22.28   10.61
 -14   9  13   23.65   10.98
 -14   9  13   28.21   13.02
  14  -9 -13   12.04    9.80
  14   9 -13   15.83    9.45
 -14   9  11    7.67    8.81
  14 -10 -18  484.26   36.80
  14  10 -18  576.78   39.50
 -14  10  16  505.27   36.13
  14 -10 -16  610.26   40.13
  14  10 -16  479.43   35.83
 -14  10  16  482.02   37.28
 -14  10  14  724.31   45.26
  14 -10 -14  680.07   43.34
  14  10 -14  774.65   45.77
  14  10 -12  281.71   28.46
 -14 -10  12  237.44   26.81
  14 -10 -12  219.01   25.02
 -14  11  17    4.98    8.37
  14 -11 -17   11.78    8.24
  14  11 -17    2.63    7.26
 -14  11  15   19.63    9.82
  14 -11 -15   20.86    9.77
  14  11 -15   43.70   12.95
  14 -11 -13    3.81    7.57
  14  11 -13    2.77    8.13
 -14  12  16  244.22   25.30
  14 -12 -16  254.56   26.23
  14  12 -16  260.06   26.08
 -14  12  16  222.39   25.68
  14 -12 -14  253.17   26.62
  14  12 -14  271.02   26.91
  15   0 -21   -4.07    8.83
  15   0 -19    0.17    7.63
 -15   0  17   14.00   10.71
  15   0 -17    0.51    9.62
  15   0 -17   -3.08    7.40
 -15   0  15    7.12    9.27
  15   0 -15    4.91   10.83
  15   0 -15   14.96    9.54
 -15   0  13   14.45   10.53
  15   0 -13   14.19   11.21
  15  -1 -20 1066.80   53.50
  15   1 -20 1072.20   54.87
  15  -1 -18  772.88   47.64
  15   1 -18  864.02   49.85
 -15   1  18  851.66   52.57
 -15  -1  18  729.25   49.19
  15  -1 -18  701.83   42.00
  15   1 -18  691.17   42.73
  15  -1 -16  486.33   37.16
  15   1 -16  490.35   37.75
 -15  -1  16  482.44   39.00
 -15   1  16  509.69   39.80
  15  -1 -16  411.05   32.17
  15   1 -16  490.52   36.25
 -15  -1  14 1269.80   63.99
 -15   1  14 1301.78   63.60
  15   1 -14 1232.93   59.97
  15  -1 -14 1357.49   61.13
 -15  -1  12  517.87   39.40
 -15   1  12  503.94   37.86
  15  -1 -12  552.80   39.66
  15  -2 -21   -7.81   10.30
  15  -2 -19   19.71   10.00
  15   2 -19   14.22   10.79
 -15  -2  17   60.26   14.76
 -15   2  17   95.31   17.46
  15  -2 -17   69.62   16.76
  15   2 -17   66.73   15.68
  15  -2 -17   95.85   15.51
  15   2 -17   79.07   15.77
 -15  -2  15    8.14    8.24
 -15   2  15   -2.20    8.82
  15  -2 -15   18.40   11.45
  15   2 -15  -11.29    9.51
  15  -2 -15   10.02    8.31
  15   2 -15    3.69    9.22
 -15  -2  13   16.74   10.62
 -15   2  13    4.45    7.39
  15  -2 -13   17.78   10.68
 -15  -2  11   13.50    8.79
  15  -3 -22  119.76   18.43
  15  -3 -20  430.85   32.59
  15  -3 -18  608.70   37.58
  15   3 -18  562.67   39.16
  15  -3 -16  670.61   40.12
  15   3 -16  702.83   44.71
 -15  -3  16  724.97   49.06
 -15   3  16  682.90   46.23
  15  -3 -16  687.24   44.36
  15   3 -16  719.58   45.52
  15   3 -14  744.89   46.17
  15  -3 -14  812.89   45.32
 -15  -3  14  810.93   51.25
 -15   3  14  727.35   46.81
  15  -3 -12  536.36   38.63
 -15  -3  12  586.66   42.90
 -15   3  12  551.72   39.55
  15  -4 -21    7.12    7.53
  15  -4 -19   19.68    8.28
  15  -4 -17   19.97    8.75
  15   4 -17   43.72   13.03
 -15   4  17   34.08   13.37
  15  -4 -17   15.26   10.17
  15   4 -17   19.23    9.07
  15  -4 -15   60.84   12.45
  15   4 -15   56.98   13.84
 -15  -4  15   69.16   16.99
 -15   4  15   27.55   11.33
  15  -4 -15   49.12   13.68
 -15  -4  13   21.03   11.25
 -15   4  13   23.35   10.93
  15  -4 -13   20.41    8.74
 -15  -4  11    9.48   10.49
  15  -5 -20  543.59   37.74
 -15   5  18  460.49   34.57
  15  -5 -18  503.63   33.23
 -15   5  16  328.22   30.25
  15  -5 -16  294.62   29.88
  15   5 -16  299.61   29.59
  15  -5 -16  364.52   28.66
 -15   5  16  365.89   34.10
  15  -5 -14  609.41   37.99
 -15  -5  14  600.76   45.04
 -15   5  14  536.10   40.26
  15  -5 -12  341.63   30.09
 -15   6  17   10.62    9.57
 -15   6  15  -13.59   10.58
 -15   6  15   -1.43    7.30
  15  -6 -13   11.93    8.81
 -15   6  13    7.84    7.46
 -15   7  18  540.96   37.86
 -15   7  16  866.24   50.97
 -15   7  14  389.55   34.19
 -15   8  17    1.51    9.97
 -15   9  16  619.91   42.70
 -15  10  17   16.20    8.67
  16  -1 -19  -14.22   10.29
  16  -1 -17   44.73   12.85
  16  -2 -20  607.53   39.82
  16  -2 -18  402.14   32.46
  16  -2 -16  791.91   46.68
  16  -3 -21   -4.95    7.14
  16  -3 -19    8.22    8.94
  16  -3 -17   84.24   15.90
  16  -3 -15   53.16   13.24
  16  -4 -18  410.87   31.80
 -16   4  18  388.78   32.92
  16  -4 -16  628.82   40.33
 -16   5  19    4.56    7.39
   0   0   0    0.00    0.00





TITL JL20012_refinalized in I2/a
REM I2/a (#15 in standard setting)
CELL 0.71073  12.084818  16.957442  16.564374  90.0000 142.0740  90.0000
ZERR    4.00   0.000717   0.000239   0.000983   0.0000   0.0126   0.0000
LATT  2
SYMM -x+1/2, y,-z
SFAC C H N O Cl Au
UNIT 72.00 84.00 8.00 8.00 16.00 4.00
TREF
HKLF 4
END
_computing_structure_solution     'SHELXT 2018/2 (Sheldrick, 2018)'
_computing_structure_solution     'SHELXT 2018/2 (Sheldrick, 2018)'
_computing_structure_solution     'SHELXT 2018/2 (Sheldrick, 2018)'
_computing_structure_solution     'SHELXT 2018/2 (Sheldrick, 2018)'
;
_shelx_hkl_checksum              95216
_olex2_diffrn_ambient_temperature_device 'Oxford Cryosystems Cryostream 700+'
_olex2_submission_special_instructions 'No special instructions were received'
_oxdiff_exptl_absorpt_empirical_details 
;
Empirical correction (ABSPACK) includes:
- Absorption correction using spherical harmonics
- Frame scaling
;
