data_jl21026
_audit_creation_date               2021-07-13
_audit_creation_method
;
Olex2 1.3-beta
(compiled 2020.11.12 svn.r5f609507 for OlexSys, GUI svn.r6272)
;
_shelx_SHELXL_version_number       '2018/3'
loop_
  _audit_author_name
  _audit_author_email
  _audit_author_address
 'Kinsman, L.' ''
;
The University of Edinburgh
School of Chemistry
Joseph Black Building David Brewster Road
Edinburgh
EH9 3FJ
;
 'Nichol, G.S.' g.s.nichol@ed.ac.uk
;
The University of Edinburgh
School of Chemistry
Joseph Black Building David Brewster Road
Edinburgh
EH9 3FJ
;

_audit_contact_author_address
;
The University of Edinburgh
School of Chemistry
Joseph Black Building David Brewster Road
Edinburgh
EH9 3FJ
;
_audit_contact_author_email        g.s.nichol@ed.ac.uk
_audit_contact_author_name         'Nichol, G.S.'
_audit_contact_author_phone        '+44 131 658 4806'
_publ_contact_author_id_orcid      0000-0002-1597-3679
_publ_section_references
;
Dolomanov, O.V., Bourhis, L.J., Gildea, R.J, Howard, J.A.K. & Puschmann, H.
 (2009), J. Appl. Cryst. 42, 339-341.

Sheldrick, G.M. (2008). Acta Cryst. A64, 112-122.

Sheldrick, G.M. (2015). Acta Cryst. C71, 3-8.
;
_chemical_name_common              ?
_chemical_name_systematic          ?
_chemical_formula_moiety           'Au Cl4, C18 H19 Cl2 N2 O2, 2(C H Cl3)'
_chemical_formula_sum              'C20 H21 Au Cl12 N2 O2'
_chemical_formula_weight           943.75
_chemical_absolute_configuration   ad
_chemical_melting_point            ?
_chemical_oxdiff_formula           'C40 H41 Au2 Cl24 N4 O4'
loop_
  _atom_type_symbol
  _atom_type_description
  _atom_type_scat_dispersion_real
  _atom_type_scat_dispersion_imag
  _atom_type_scat_source
 'C' 'C' 0.0033 0.0016 'International Tables Vol C Tables 4.2.6.8 and 6.1.1.4'
 'H' 'H' 0.0000 0.0000 'International Tables Vol C Tables 4.2.6.8 and 6.1.1.4'
 'Au' 'Au' -2.0133 8.8022
 'International Tables Vol C Tables 4.2.6.8 and 6.1.1.4'
 'Cl' 'Cl' 0.1484 0.1585 'International Tables Vol C Tables 4.2.6.8 and 6.1.1.4'
 'N' 'N' 0.0061 0.0033 'International Tables Vol C Tables 4.2.6.8 and 6.1.1.4'
 'O' 'O' 0.0106 0.0060 'International Tables Vol C Tables 4.2.6.8 and 6.1.1.4'

_shelx_space_group_comment
;
The symmetry employed for this shelxl refinement is uniquely defined
by the following loop, which should always be used as a source of
symmetry information in preference to the above space-group names.
They are only intended as comments.
;
_space_group_crystal_system        'triclinic'
_space_group_IT_number             1
_space_group_name_H-M_alt          'P 1'
_space_group_name_Hall             'P 1'
loop_
  _space_group_symop_operation_xyz
 'x, y, z'

_cell_length_a                     7.9204(7)
_cell_length_b                     13.3982(13)
_cell_length_c                     16.9237(15)
_cell_angle_alpha                  100.679(8)
_cell_angle_beta                   102.829(8)
_cell_angle_gamma                  106.113(8)
_cell_volume                       1622.8(3)
_cell_formula_units_Z              2
_cell_measurement_reflns_used      7078
_cell_measurement_temperature      120.01(10)
_cell_measurement_theta_max        25.0550
_cell_measurement_theta_min        3.6950
_shelx_estimated_absorpt_T_max     0.809
_shelx_estimated_absorpt_T_min     0.490
_exptl_absorpt_coefficient_mu      5.544
_exptl_absorpt_correction_T_max    0.67059
_exptl_absorpt_correction_T_min    0.66393
_exptl_absorpt_correction_type     multi-scan
_exptl_absorpt_process_details
;
CrysAlisPro 1.171.41.99a (Rigaku Oxford Diffraction, 2021)
Spherical absorption correction
using equivalent radius and absorption coefficient.
Empirical absorption correction using spherical harmonics,
implemented in SCALE3 ABSPACK scaling algorithm.
;
_exptl_absorpt_special_details     ?
_exptl_crystal_colour              'light yellow'
_exptl_crystal_colour_modifier     light
_exptl_crystal_colour_primary      yellow
_exptl_crystal_density_diffrn      1.931
_exptl_crystal_density_meas        ?
_exptl_crystal_density_method      ?
_exptl_crystal_description         plate
_exptl_crystal_F_000               908
loop_
  _exptl_crystal_face_index_h
  _exptl_crystal_face_index_k
  _exptl_crystal_face_index_l
  _exptl_crystal_face_perp_dist
 0 -11 -14 0.0512
 9 -11 -12 0.0676
 11 -3 -1 0.0814
 4 8 12 0.0667
 -9 11 12 0.0604
 -9 -1 -4 0.0547
 -1 -15 18 0.0180
 1 15 -18 0.0180

_exptl_crystal_recrystallization_method 
 'The material was recrystallised from CHCl3 by slow evaporation'
_exptl_crystal_size_max            0.15
_exptl_crystal_size_mid            0.13
_exptl_crystal_size_min            0.04
_exptl_crystal_size_rad            0.049
loop_
  _exptl_oxdiff_crystal_face_indexfrac_h
  _exptl_oxdiff_crystal_face_indexfrac_k
  _exptl_oxdiff_crystal_face_indexfrac_l
  _exptl_oxdiff_crystal_face_x
  _exptl_oxdiff_crystal_face_y
  _exptl_oxdiff_crystal_face_z
 0.2951 -10.9685 -14.4961 -0.3309 -0.5394 0.7743
 9.1806 -10.7931 -12.1117 0.1304 0.2154 0.9678
 10.8404 -2.9119 -1.2427 0.4642 0.7601 0.4548
 3.9726 8.1060 11.7276 0.4595 0.7504 -0.4752
 -9.0105 10.9393 12.3470 -0.1171 -0.1936 -0.9741
 -9.3898 -1.1016 -3.7365 -0.5164 -0.8448 -0.1403
 -1.2529 -14.5381 17.8312 -0.9030 0.4296 -0.0087
 1.2529 14.5381 -17.8312 0.9030 -0.4296 0.0087

_exptl_transmission_factor_max     ?
_exptl_transmission_factor_min     ?
_diffrn_reflns_av_R_equivalents    0.1080
_diffrn_reflns_av_unetI/netI       0.1153
_diffrn_reflns_Laue_measured_fraction_full  0.998
_diffrn_reflns_Laue_measured_fraction_max  0.992
_diffrn_reflns_limit_h_max         9
_diffrn_reflns_limit_h_min         -9
_diffrn_reflns_limit_k_max         16
_diffrn_reflns_limit_k_min         -16
_diffrn_reflns_limit_l_max         20
_diffrn_reflns_limit_l_min         -20
_diffrn_reflns_number              20043
_diffrn_reflns_point_group_measured_fraction_full  0.965
_diffrn_reflns_point_group_measured_fraction_max  0.957
_diffrn_reflns_theta_full          25.242
_diffrn_reflns_theta_max           25.449
_diffrn_reflns_theta_min           3.173
_diffrn_ambient_environment        N~2~
_diffrn_ambient_temperature        120.01(10)
_diffrn_detector                   'CCD plate'
_diffrn_detector_area_resol_mean   5.1574
_diffrn_detector_type              Atlas
_diffrn_measured_fraction_theta_full  0.998
_diffrn_measured_fraction_theta_max  0.992
_diffrn_measurement_details
;
List of Runs (angles in degrees, time in seconds):

  # Type    Start    End  Width  t~exp~   \w     \q     \k     \f   Frames
--------------------------------------------------------------------------
  1  \w    -35.00  23.00   1.00   15.00    --  -19.60 -72.00  41.00   58
  2  \w    -63.00  14.00   1.00   15.00    --  -19.60  72.00 171.00   77
  3  \w    -36.00  65.00   1.00   15.00    --   20.93 -72.00  41.00  101
  4  \w    -15.00  73.00   1.00   15.00    --   20.93 -99.00 -60.00   88
  5  \w    -42.00  65.00   1.00   15.00    --   20.93 -77.00-180.00  107
  6  \w    -42.00  65.00   1.00   15.00    --   20.93 -77.00 -60.00  107
  7  \w    -74.00 119.00   1.00   15.00    --   20.93 -19.00  90.00  193
  8  \w   -114.00 -15.00   1.00   15.00    --  -19.60 -57.00-180.00   99
  9  \w    -24.00  21.00   1.00   15.00    --   20.93  77.00  30.00   45
 10  \w    -24.00  21.00   1.00   15.00    --   20.93  77.00 -90.00   45
;
_diffrn_measurement_device         'four-circle diffractometer'
_diffrn_measurement_device_type    'Rigaku Oxford Diffraction SuperNova'
_diffrn_measurement_method         '\w scans'
_diffrn_orient_matrix_type        
 'CrysAlisPro convention (1999,Acta A55,543-557)'
_diffrn_orient_matrix_UB_11        0.0537498000
_diffrn_orient_matrix_UB_12        0.0450278000
_diffrn_orient_matrix_UB_13        -0.0101508000
_diffrn_orient_matrix_UB_21        0.0756407000
_diffrn_orient_matrix_UB_22        0.0059422000
_diffrn_orient_matrix_UB_23        0.0342542000
_diffrn_orient_matrix_UB_31        0.0296006000
_diffrn_orient_matrix_UB_32        -0.0346105000
_diffrn_orient_matrix_UB_33        -0.0266245000
_diffrn_radiation_monochromator    mirror
_diffrn_radiation_probe            x-ray
_diffrn_radiation_type             'Mo K\a'
_diffrn_radiation_wavelength       0.71073
_diffrn_source                     'micro-focus sealed X-ray tube'
_diffrn_source_type                'SuperNova (Mo) X-ray Source'
_reflns_Friedel_coverage           0.930
_reflns_Friedel_fraction_full      0.932
_reflns_Friedel_fraction_max       0.923
_reflns_number_gt                  14783
_reflns_number_total               19179
_reflns_special_details
;
 _reflns_Friedel_fraction is defined as the number of unique
 Friedel pairs measured divided by the number that would be
 possible theoretically, ignoring centric projections and
 systematic absences. Completness statistics refer to single and
 composite reflections containing twin component 1 only.
;
_reflns_threshold_expression       'I > 2\s(I)'
_computing_cell_refinement         'CrysAlisPro 1.171.41.99a (Rigaku OD, 2021)'
_computing_data_collection         'CrysAlisPro 1.171.41.99a (Rigaku OD, 2021)'
_computing_data_reduction          'CrysAlisPro 1.171.41.99a (Rigaku OD, 2021)'
_computing_molecular_graphics      'Olex2 1.3-beta (Dolomanov et al., 2009)'
_computing_publication_material    'Olex2 1.3-beta (Dolomanov et al., 2009)'
_computing_structure_refinement    'SHELXL 2018/3 (Sheldrick, 2015)'
_computing_structure_solution      'SHELXS  (Sheldrick, 2008)'
_refine_diff_density_max           2.449
_refine_diff_density_min           -1.309
_refine_diff_density_rms           0.162
_refine_ls_abs_structure_details
;
 Classical Flack method preferred over Parsons because s.u. lower.
;
_refine_ls_abs_structure_Flack     0.387(6)
_refine_ls_extinction_coef         .
_refine_ls_extinction_method       none
_refine_ls_goodness_of_fit_ref     0.960
_refine_ls_hydrogen_treatment      mixed
_refine_ls_matrix_type             full
_refine_ls_number_parameters       678
_refine_ls_number_reflns           19179
_refine_ls_number_restraints       994
_refine_ls_R_factor_all            0.0750
_refine_ls_R_factor_gt             0.0564
_refine_ls_restrained_S_all        0.937
_refine_ls_shift/su_max            0.000
_refine_ls_shift/su_mean           0.000
_refine_ls_structure_factor_coef   Fsqd
_refine_ls_weighting_details      
 'w=1/[\s^2^(Fo^2^)+(0.0559P)^2^] where P=(Fo^2^+2Fc^2^)/3'
_refine_ls_weighting_scheme        calc
_refine_ls_wR_factor_gt            0.1150
_refine_ls_wR_factor_ref           0.1196
_refine_special_details
;
The sample crystallized as poorly-formed, thin, twinned, fragile plate-shaped crystals decomposed rapidly when removed from mother liquor and also when touched by an acupuncture needle.  A small fragment was found to diffract weakly and data sets were measured on this same crystal using copper and molybdenum radiation.  The crystal is both a non-merohedral twin and the identified space group is P1.  ADDSYM reports a 95% fit in P-1 but this model is extensively affected by whole molecule disorder and refinement residuals are more than twice that obtained in P1 with many NPD atom sites.  Several integration and refinalization iterations were carried out on both data sets using CrysAlisPro to find the optimum data handling settings.  The best result was achieved using molybedenum radiation and a small integration box mask size of 0.75 with the second twin component inverted during refinalization.  The inversion twin parameter was calculated by ShelXL at the end of refinement; TWIN/BASF is not possible here.  SIMU/RIGU/DELU were needed to control displacement ellipsoid size and shape.  O-bound H atoms were identified from a difference map and refined with restraints.


#===============================================================================
#>>> The Following Improvement and Query ALERTS were generated - (Acta-Mode) <<<
#===============================================================================
     Format: alert-number_ALERT_alert-type_alert-level text

342_ALERT_3_B Low Bond Precision on  C-C Bonds ...............    0.03433 Ang.

Weak data

987_ALERT_1_B The Flack x is >> 0 -  Do a BASF/TWIN Refinement     Please Check

HKLF 5 file

#===============================================================================
244_ALERT_4_C Low    'Solvent' Ueq as Compared to Neighbors of        C69 Check
250_ALERT_2_C Large U3/U1 Ratio for Average U(i,j) Tensor ....        2.3 Note
910_ALERT_3_C Missing # of FCF Reflection(s) Below Theta(Min).         10 Note

Noted but no action taken

#===============================================================================
;
_olex2_refinement_description
;
1. Twinned data refinement
 Scales: 0.4909(11)
 0.5091(11)
2. Fixed Uiso
 At 1.2 times of:
  All C(H) groups, All C(H,H) groups, All O(H) groups
 At 1.5 times of:
  All C(H,H,H) groups
3. Restrained distances
 O1-H1
 0.84 with sigma of 0.02
 O51-H51
 0.84 with sigma of 0.02
 O2-C11 \\sim O52-C61
 with sigma of 0.02
4. Rigid bond restraints
 All non-hydrogen atoms
 with sigma for 1-2 distances of 0.01 and sigma for 1-3 distances of 0.01
5. Uiso/Uaniso restraints and constraints
All non-hydrogen atoms have similar U: within 2A with sigma of 0.04 and sigma
for terminal atoms of 0.08 within 2A
6. Rigid body (RIGU) restrains
 All non-hydrogen atoms
 with sigma for 1-2 distances of 0.004 and sigma for 1-3 distances of 0.004
7.a Ternary CH refined with riding coordinates:
 C19(H19), C20(H20), C69(H69), C70(H70)
7.b Secondary CH2 refined with riding coordinates:
 C9(H9A,H9B), C10(H10A,H10B), C59(H59A,H59B), C60(H60A,H60B)
7.c Aromatic/amide H refined with riding coordinates:
 C3(H3), C4(H4), C6(H6), C7(H7), C13(H13), C14(H14), C16(H16), C17(H17),
 C53(H53), C54(H54), C56(H56), C57(H57), C63(H63), C64(H64), C66(H66), C67(H67)
7.d Idealised Me refined as rotating group:
 C8(H8A,H8B,H8C), C18(H18A,H18B,H18C), C58(H58A,H58B,H58C), C68(H68A,H68B,H68C)
;
_atom_sites_solution_hydrogens     mixed
_atom_sites_solution_primary       heavy
_atom_sites_solution_secondary     ?
loop_
  _atom_site_label
  _atom_site_type_symbol
  _atom_site_fract_x
  _atom_site_fract_y
  _atom_site_fract_z
  _atom_site_U_iso_or_equiv
  _atom_site_adp_type
  _atom_site_occupancy
  _atom_site_site_symmetry_order
  _atom_site_calc_flag
  _atom_site_refinement_flags_posn
  _atom_site_refinement_flags_adp
  _atom_site_refinement_flags_occupancy
  _atom_site_disorder_assembly
  _atom_site_disorder_group
 Au1 Au 0.88739(8) 0.74592(6) 0.75282(6) 0.0214(3) Uani 1 1 d . U . . .
 Cl3 Cl 0.9741(10) 0.7157(6) 0.8810(4) 0.0397(18) Uani 1 1 d . U . . .
 Cl4 Cl 1.1597(8) 0.7375(5) 0.7319(4) 0.0272(15) Uani 1 1 d . U . . .
 Cl5 Cl 0.8009(8) 0.7716(6) 0.6226(4) 0.0370(17) Uani 1 1 d . U . . .
 Cl6 Cl 0.6189(8) 0.7584(5) 0.7758(5) 0.0342(17) Uani 1 1 d . U . . .
 Au51 Au 0.11497(9) 0.25647(7) 0.24776(6) 0.0231(3) Uani 1 1 d . U . . .
 Cl53 Cl 0.1220(9) 0.2929(6) 0.1218(4) 0.0394(18) Uani 1 1 d . U . . .
 Cl54 Cl -0.1864(8) 0.2455(5) 0.2200(4) 0.0294(15) Uani 1 1 d . U . . .
 Cl55 Cl 0.1035(9) 0.2182(5) 0.3717(4) 0.0376(17) Uani 1 1 d . U . . .
 Cl56 Cl 0.4163(8) 0.2685(5) 0.2776(5) 0.0363(17) Uani 1 1 d . U . . .
 Cl1 Cl -0.2336(8) -0.1696(6) 1.2812(4) 0.0379(18) Uani 1 1 d . U . . .
 Cl2 Cl 1.2724(8) 0.2257(6) 0.7298(5) 0.0340(17) Uani 1 1 d . U . . .
 O1 O 0.146(2) -0.0057(17) 0.9956(12) 0.029(5) Uani 1 1 d D U . . .
 H1 H 0.035(10) -0.01(2) 0.985(15) 0.035 Uiso 1 1 d D U . . .
 O2 O 0.832(2) -0.0062(17) 0.9745(11) 0.027(5) Uani 1 1 d D U . . .
 N1 N 0.401(2) -0.0126(16) 1.0755(12) 0.018(4) Uani 1 1 d . U . . .
 N2 N 0.581(2) -0.0014(16) 0.8872(12) 0.019(4) Uani 1 1 d . U . . .
 C1 C 0.225(3) -0.024(2) 1.0587(16) 0.021(5) Uani 1 1 d . U . . .
 C2 C 0.119(3) -0.067(2) 1.1149(15) 0.017(4) Uani 1 1 d . U . . .
 C3 C 0.170(3) -0.0147(18) 1.2009(15) 0.018(5) Uani 1 1 d . U . . .
 H3 H 0.282944 0.043428 1.224442 0.022 Uiso 1 1 calc R U . . .
 C4 C 0.064(3) -0.044(2) 1.2520(16) 0.024(5) Uani 1 1 d . U . . .
 H4 H 0.099682 -0.006370 1.309559 0.029 Uiso 1 1 calc R U . . .
 C5 C -0.098(3) -0.132(2) 1.2174(17) 0.025(5) Uani 1 1 d . U . . .
 C6 C -0.152(3) -0.185(2) 1.1326(17) 0.023(5) Uani 1 1 d . U . . .
 H6 H -0.264031 -0.243884 1.109633 0.028 Uiso 1 1 calc R U . . .
 C7 C -0.046(3) -0.154(2) 1.0819(17) 0.021(5) Uani 1 1 d . U . . .
 H7 H -0.084183 -0.190804 1.023977 0.025 Uiso 1 1 calc R U . . .
 C8 C 0.511(3) -0.043(2) 1.1410(16) 0.027(6) Uani 1 1 d . U . . .
 H8A H 0.580392 0.020757 1.188235 0.041 Uiso 1 1 calc R U . . .
 H8B H 0.595955 -0.072898 1.119204 0.041 Uiso 1 1 calc R U . . .
 H8C H 0.430087 -0.097017 1.160118 0.041 Uiso 1 1 calc R U . . .
 C9 C 0.498(3) 0.035(2) 1.0192(15) 0.019(5) Uani 1 1 d . U . . .
 H9A H 0.630098 0.071181 1.049871 0.022 Uiso 1 1 calc R U . . .
 H9B H 0.448275 0.091135 1.002852 0.022 Uiso 1 1 calc R U . . .
 C10 C 0.478(3) -0.049(2) 0.9395(14) 0.020(5) Uani 1 1 d . U . . .
 H10A H 0.522401 -0.106711 0.955680 0.024 Uiso 1 1 calc R U . . .
 H10B H 0.346496 -0.082351 0.907144 0.024 Uiso 1 1 calc R U . . .
 C11 C 0.761(3) 0.022(2) 0.9092(15) 0.020(5) Uani 1 1 d D U . . .
 C12 C 0.877(3) 0.066(2) 0.8576(15) 0.015(4) Uani 1 1 d . U . . .
 C13 C 0.850(3) 0.026(2) 0.7712(14) 0.021(5) Uani 1 1 d . U . . .
 H13 H 0.745355 -0.035032 0.739798 0.025 Uiso 1 1 calc R U . . .
 C14 C 0.970(3) 0.070(2) 0.7322(16) 0.023(5) Uani 1 1 d . U . . .
 H14 H 0.953609 0.040388 0.674396 0.027 Uiso 1 1 calc R U . . .
 C15 C 1.119(3) 0.161(2) 0.7798(16) 0.021(5) Uani 1 1 d . U . . .
 C16 C 1.146(3) 0.204(2) 0.8609(16) 0.021(5) Uani 1 1 d . U . . .
 H16 H 1.246443 0.268563 0.889979 0.025 Uiso 1 1 calc R U . . .
 C17 C 1.030(3) 0.156(2) 0.9025(16) 0.015(5) Uani 1 1 d . U . . .
 H17 H 1.054702 0.183405 0.961302 0.018 Uiso 1 1 calc R U . . .
 C18 C 0.479(3) 0.0307(18) 0.8186(14) 0.018(5) Uani 1 1 d . U . . .
 H18A H 0.562751 0.091317 0.806709 0.027 Uiso 1 1 calc R U . . .
 H18B H 0.380623 0.052282 0.834889 0.027 Uiso 1 1 calc R U . . .
 H18C H 0.426042 -0.030151 0.768224 0.027 Uiso 1 1 calc R U . . .
 Cl7 Cl 0.5451(10) 0.5981(8) 0.9298(5) 0.070(3) Uani 1 1 d . U . . .
 Cl8 Cl 0.3186(10) 0.6712(7) 1.0233(5) 0.050(2) Uani 1 1 d . U . . .
 Cl9 Cl 0.1582(11) 0.4864(7) 0.8767(6) 0.067(3) Uani 1 1 d . U . . .
 C19 C 0.332(4) 0.607(2) 0.9227(19) 0.050(7) Uani 1 1 d . U . . .
 H19 H 0.313792 0.655252 0.885366 0.060 Uiso 1 1 calc R U . . .
 Cl10 Cl 0.5159(9) 0.3425(6) 1.0707(4) 0.0432(17) Uani 1 1 d . U . . .
 Cl11 Cl 0.6958(10) 0.3137(7) 0.9410(5) 0.0463(19) Uani 1 1 d . U . . .
 Cl12 Cl 0.8580(10) 0.5020(7) 1.0822(6) 0.059(2) Uani 1 1 d . U . . .
 C20 C 0.726(3) 0.366(2) 1.0473(16) 0.034(6) Uani 1 1 d . U . . .
 H20 H 0.795772 0.327002 1.078927 0.040 Uiso 1 1 calc R U . . .
 Cl51 Cl 0.8014(8) 0.2802(6) 0.7476(4) 0.0312(16) Uani 1 1 d . U . . .
 Cl52 Cl -0.8040(8) 0.7230(5) 0.2127(4) 0.0307(16) Uani 1 1 d . U . . .
 O51 O 0.347(2) 0.4991(15) 0.4887(12) 0.025(4) Uani 1 1 d D U . . .
 H51 H 0.448(17) 0.488(19) 0.492(16) 0.030 Uiso 1 1 d D U . . .
 O52 O -0.359(2) 0.4985(16) 0.4674(11) 0.026(4) Uani 1 1 d D U . . .
 N51 N 0.166(2) 0.4874(16) 0.5712(12) 0.020(4) Uani 1 1 d . U . . .
 N52 N -0.175(2) 0.5063(15) 0.3855(12) 0.019(4) Uani 1 1 d . U . . .
 C51 C 0.315(3) 0.4752(19) 0.5529(15) 0.016(4) Uani 1 1 d . U . . .
 C52 C 0.435(3) 0.4257(17) 0.6046(14) 0.015(4) Uani 1 1 d . U . . .
 C53 C 0.462(3) 0.3344(18) 0.5620(15) 0.018(4) Uani 1 1 d . U . . .
 H53 H 0.404500 0.303478 0.503457 0.022 Uiso 1 1 calc R U . . .
 C54 C 0.577(3) 0.2897(17) 0.6094(14) 0.017(4) Uani 1 1 d . U . . .
 H54 H 0.594977 0.225807 0.583516 0.021 Uiso 1 1 calc R U . . .
 C55 C 0.660(3) 0.3378(18) 0.6905(15) 0.016(4) Uani 1 1 d . U . . .
 C56 C 0.638(3) 0.4314(18) 0.7334(14) 0.019(4) Uani 1 1 d . U . . .
 H56 H 0.700771 0.464412 0.791159 0.023 Uiso 1 1 calc R U . . .
 C57 C 0.520(3) 0.4736(18) 0.6884(15) 0.019(4) Uani 1 1 d . U . . .
 H57 H 0.498764 0.535713 0.715376 0.023 Uiso 1 1 calc R U . . .
 C58 C 0.095(3) 0.450(2) 0.6387(16) 0.024(5) Uani 1 1 d . U . . .
 H58A H 0.160000 0.403880 0.660209 0.036 Uiso 1 1 calc R U . . .
 H58B H -0.036835 0.409268 0.615925 0.036 Uiso 1 1 calc R U . . .
 H58C H 0.113977 0.512542 0.684546 0.036 Uiso 1 1 calc R U . . .
 C59 C 0.057(3) 0.5351(19) 0.5180(15) 0.018(5) Uani 1 1 d . U . . .
 H59A H 0.140643 0.593501 0.502746 0.021 Uiso 1 1 calc R U . . .
 H59B H -0.013782 0.567443 0.550094 0.021 Uiso 1 1 calc R U . . .
 C60 C -0.077(3) 0.4514(18) 0.4369(14) 0.017(4) Uani 1 1 d . U . . .
 H60A H -0.008057 0.416870 0.405074 0.020 Uiso 1 1 calc R U . . .
 H60B H -0.165875 0.394708 0.451283 0.020 Uiso 1 1 calc R U . . .
 C61 C -0.317(3) 0.5244(17) 0.4033(14) 0.016(4) Uani 1 1 d D U . . .
 C62 C -0.435(3) 0.5736(18) 0.3526(15) 0.015(4) Uani 1 1 d . U . . .
 C63 C -0.474(3) 0.6608(18) 0.3951(15) 0.018(5) Uani 1 1 d . U . . .
 H63 H -0.419154 0.690620 0.453912 0.022 Uiso 1 1 calc R U . . .
 C64 C -0.590(3) 0.702(2) 0.3508(15) 0.022(5) Uani 1 1 d . U . . .
 H64 H -0.620053 0.760249 0.379139 0.027 Uiso 1 1 calc R U . . .
 C65 C -0.663(3) 0.6619(18) 0.2669(14) 0.018(4) Uani 1 1 d . U . . .
 C66 C -0.625(3) 0.5775(17) 0.2227(15) 0.019(4) Uani 1 1 d . U . . .
 H66 H -0.674363 0.551299 0.163438 0.023 Uiso 1 1 calc R U . . .
 C67 C -0.510(3) 0.5312(17) 0.2685(14) 0.017(4) Uani 1 1 d . U . . .
 H67 H -0.484260 0.471074 0.240699 0.020 Uiso 1 1 calc R U . . .
 C68 C -0.099(3) 0.539(2) 0.3197(16) 0.027(6) Uani 1 1 d . U . . .
 H68A H 0.034566 0.572933 0.342280 0.040 Uiso 1 1 calc R U . . .
 H68B H -0.152438 0.591043 0.299779 0.040 Uiso 1 1 calc R U . . .
 H68C H -0.128280 0.476019 0.272900 0.040 Uiso 1 1 calc R U . . .
 Cl57 Cl 0.6706(13) 0.9691(7) 0.4849(6) 0.084(3) Uani 1 1 d . U . . .
 Cl58 Cl 0.9370(11) 1.1764(6) 0.5363(5) 0.042(2) Uani 1 1 d . U . . .
 Cl59 Cl 0.6163(11) 1.1329(8) 0.4003(5) 0.066(3) Uani 1 1 d . U . . .
 C69 C 0.775(4) 1.077(3) 0.4496(18) 0.045(6) Uani 1 1 d . U . . .
 H69 H 0.838766 1.052681 0.408960 0.054 Uiso 1 1 calc R U . . .
 Cl60 Cl 1.0743(11) 0.8091(8) 0.4532(5) 0.046(2) Uani 1 1 d . U . . .
 Cl61 Cl 1.2636(10) 1.0003(6) 0.5921(5) 0.054(2) Uani 1 1 d . U . . .
 Cl62 Cl 1.3990(8) 0.8194(6) 0.5795(4) 0.0357(16) Uani 1 1 d . U . . .
 C70 C 1.202(3) 0.863(2) 0.5611(16) 0.032(6) Uani 1 1 d . U . . .
 H70 H 1.122882 0.832498 0.595202 0.039 Uiso 1 1 calc R U . . .

loop_
  _atom_site_aniso_label
  _atom_site_aniso_U_11
  _atom_site_aniso_U_22
  _atom_site_aniso_U_33
  _atom_site_aniso_U_23
  _atom_site_aniso_U_13
  _atom_site_aniso_U_12
 Au1 0.0192(6) 0.0187(7) 0.0244(7) 0.0014(5) 0.0066(5) 0.0061(5)
 Cl3 0.053(5) 0.050(5) 0.032(4) 0.020(4) 0.019(4) 0.030(4)
 Cl4 0.022(3) 0.034(4) 0.028(4) 0.006(3) 0.009(3) 0.014(3)
 Cl5 0.026(3) 0.059(5) 0.029(4) 0.012(3) 0.007(3) 0.019(3)
 Cl6 0.025(3) 0.025(4) 0.059(5) 0.009(4) 0.024(3) 0.009(3)
 Au51 0.0191(6) 0.0216(8) 0.0228(7) 0.0012(5) 0.0017(5) 0.0046(5)
 Cl53 0.032(4) 0.059(5) 0.021(4) 0.004(3) 0.005(3) 0.013(3)
 Cl54 0.021(3) 0.034(4) 0.033(4) 0.007(3) 0.009(3) 0.010(3)
 Cl55 0.039(4) 0.037(4) 0.033(4) 0.014(3) 0.007(3) 0.006(3)
 Cl56 0.019(3) 0.027(4) 0.061(5) 0.014(3) 0.007(3) 0.005(3)
 Cl1 0.026(3) 0.070(6) 0.029(4) 0.026(4) 0.016(3) 0.018(3)
 Cl2 0.027(3) 0.040(4) 0.041(4) 0.020(3) 0.017(3) 0.009(3)
 O1 0.016(8) 0.049(13) 0.033(11) 0.024(10) 0.009(7) 0.017(8)
 O2 0.019(9) 0.049(13) 0.029(11) 0.026(9) 0.019(7) 0.019(8)
 N1 0.018(7) 0.020(10) 0.020(10) 0.009(9) 0.008(7) 0.009(7)
 N2 0.016(7) 0.026(11) 0.019(10) 0.009(8) 0.010(7) 0.010(7)
 C1 0.020(8) 0.021(13) 0.025(11) 0.013(10) 0.008(8) 0.008(8)
 C2 0.014(9) 0.018(11) 0.026(9) 0.010(8) 0.007(8) 0.013(7)
 C3 0.013(10) 0.020(11) 0.025(10) 0.009(8) 0.008(8) 0.006(8)
 C4 0.021(10) 0.039(14) 0.017(11) 0.009(9) 0.006(8) 0.015(8)
 C5 0.016(10) 0.045(14) 0.025(10) 0.024(9) 0.010(8) 0.014(8)
 C6 0.010(10) 0.035(14) 0.027(10) 0.016(9) 0.001(8) 0.009(9)
 C7 0.015(10) 0.029(13) 0.023(11) 0.007(9) 0.007(8) 0.012(7)
 C8 0.013(10) 0.044(17) 0.036(16) 0.028(13) 0.014(10) 0.011(10)
 C9 0.017(10) 0.023(13) 0.020(12) 0.010(10) 0.009(9) 0.006(10)
 C10 0.017(10) 0.028(13) 0.020(12) 0.012(9) 0.009(9) 0.009(9)
 C11 0.019(8) 0.029(13) 0.023(11) 0.018(10) 0.011(8) 0.015(8)
 C12 0.010(9) 0.021(11) 0.014(9) 0.007(8) 0.001(7) 0.008(7)
 C13 0.017(10) 0.029(13) 0.015(9) 0.000(8) 0.001(8) 0.011(8)
 C14 0.026(11) 0.029(12) 0.020(11) 0.008(8) 0.009(8) 0.018(8)
 C15 0.023(10) 0.032(12) 0.020(10) 0.017(9) 0.011(8) 0.018(8)
 C16 0.011(10) 0.033(13) 0.017(9) 0.008(8) -0.001(8) 0.008(8)
 C17 0.012(9) 0.023(12) 0.009(10) 0.002(8) 0.000(7) 0.009(7)
 C18 0.016(10) 0.020(13) 0.019(13) 0.008(10) 0.004(9) 0.008(9)
 Cl7 0.050(4) 0.099(8) 0.045(6) 0.001(5) 0.016(4) 0.013(4)
 Cl8 0.052(4) 0.060(5) 0.030(5) 0.006(4) 0.003(3) 0.019(4)
 Cl9 0.058(5) 0.031(4) 0.083(7) -0.004(4) -0.004(4) 0.002(3)
 C19 0.053(14) 0.049(16) 0.041(16) 0.009(13) 0.013(13) 0.008(12)
 Cl10 0.033(4) 0.062(5) 0.031(4) 0.005(3) 0.010(3) 0.014(3)
 Cl11 0.044(4) 0.063(5) 0.028(4) 0.003(4) 0.013(3) 0.016(3)
 Cl12 0.042(4) 0.050(5) 0.060(6) -0.002(4) 0.001(4) -0.001(3)
 C20 0.022(11) 0.047(14) 0.022(13) 0.000(12) -0.004(10) 0.010(10)
 Cl51 0.030(3) 0.043(4) 0.031(4) 0.020(3) 0.006(3) 0.023(3)
 Cl52 0.029(3) 0.030(4) 0.034(4) 0.017(3) 0.000(3) 0.014(3)
 O51 0.012(8) 0.041(11) 0.032(10) 0.020(9) 0.010(7) 0.013(7)
 O52 0.011(8) 0.050(13) 0.029(11) 0.021(9) 0.010(7) 0.015(8)
 N51 0.016(8) 0.027(11) 0.025(10) 0.013(9) 0.007(7) 0.013(8)
 N52 0.014(8) 0.019(10) 0.022(10) 0.004(8) 0.004(7) 0.006(7)
 C51 0.012(9) 0.016(12) 0.020(11) 0.005(9) 0.005(7) 0.004(8)
 C52 0.010(9) 0.011(9) 0.022(9) 0.008(7) 0.005(7) -0.001(7)
 C53 0.018(10) 0.018(10) 0.016(10) 0.006(8) 0.000(8) 0.005(8)
 C54 0.023(11) 0.010(10) 0.018(9) 0.000(7) 0.006(8) 0.009(8)
 C55 0.018(10) 0.022(10) 0.014(9) 0.011(8) 0.007(8) 0.010(8)
 C56 0.021(10) 0.022(10) 0.010(10) 0.003(8) 0.002(8) 0.003(8)
 C57 0.018(10) 0.016(11) 0.023(9) 0.004(8) 0.004(8) 0.005(8)
 C58 0.015(11) 0.032(14) 0.028(15) 0.010(11) 0.011(10) 0.006(10)
 C59 0.013(10) 0.023(13) 0.014(11) 0.000(9) -0.002(8) 0.009(8)
 C60 0.008(9) 0.019(12) 0.021(11) 0.000(9) 0.005(8) 0.003(7)
 C61 0.016(9) 0.008(11) 0.024(11) 0.009(9) 0.008(8) 0.000(7)
 C62 0.007(9) 0.018(10) 0.017(9) 0.005(7) 0.004(7) 0.001(7)
 C63 0.014(10) 0.021(11) 0.011(10) -0.004(8) -0.003(8) 0.003(8)
 C64 0.020(11) 0.032(13) 0.018(9) 0.002(9) 0.006(9) 0.016(10)
 C65 0.007(9) 0.028(11) 0.016(9) 0.003(8) 0.001(8) 0.004(8)
 C66 0.022(10) 0.017(11) 0.016(10) 0.005(8) 0.004(8) 0.004(8)
 C67 0.016(10) 0.018(11) 0.016(8) 0.005(8) 0.007(8) 0.003(8)
 C68 0.026(12) 0.026(14) 0.038(16) 0.013(12) 0.021(11) 0.012(10)
 Cl57 0.104(7) 0.050(5) 0.074(7) 0.015(5) 0.025(5) -0.010(4)
 Cl58 0.050(5) 0.036(4) 0.032(5) 0.010(3) 0.008(3) 0.005(3)
 Cl59 0.051(5) 0.096(8) 0.040(5) 0.011(5) 0.002(4) 0.022(5)
 C69 0.050(15) 0.044(17) 0.034(17) 0.001(11) 0.016(10) 0.006(11)
 Cl60 0.041(4) 0.060(6) 0.029(5) 0.001(4) -0.004(3) 0.022(4)
 Cl61 0.065(5) 0.039(4) 0.056(6) 0.000(4) 0.012(4) 0.028(3)
 Cl62 0.027(3) 0.045(4) 0.035(4) 0.011(3) 0.007(3) 0.014(3)
 C70 0.027(12) 0.056(14) 0.022(13) 0.011(12) 0.005(10) 0.027(11)

_geom_special_details
;
 All esds (except the esd in the dihedral angle between two l.s. planes)
 are estimated using the full covariance matrix.  The cell esds are taken
 into account individually in the estimation of esds in distances, angles
 and torsion angles; correlations between esds in cell parameters are only
 used when they are defined by crystal symmetry.  An approximate (isotropic)
 treatment of cell esds is used for estimating esds involving l.s. planes.
;
loop_
  _geom_bond_atom_site_label_1
  _geom_bond_atom_site_label_2
  _geom_bond_distance
  _geom_bond_site_symmetry_2
  _geom_bond_publ_flag
 Au1 Cl3 2.271(7) . ?
 Au1 Cl4 2.291(5) . ?
 Au1 Cl5 2.277(7) . ?
 Au1 Cl6 2.290(6) . ?
 Au51 Cl53 2.283(7) . ?
 Au51 Cl54 2.285(5) . ?
 Au51 Cl55 2.265(7) . ?
 Au51 Cl56 2.280(6) . ?
 Cl1 C5 1.73(2) . ?
 Cl2 C15 1.76(2) . ?
 O1 H1 0.84(4) . ?
 O1 C1 1.21(3) . ?
 O2 C11 1.29(2) . ?
 N1 C1 1.32(3) . ?
 N1 C8 1.44(3) . ?
 N1 C9 1.48(3) . ?
 N2 C10 1.45(3) . ?
 N2 C11 1.32(3) . ?
 N2 C18 1.46(3) . ?
 C1 C2 1.50(3) . ?
 C2 C3 1.41(3) . ?
 C2 C7 1.39(3) . ?
 C3 H3 0.9500 . ?
 C3 C4 1.37(3) . ?
 C4 H4 0.9500 . ?
 C4 C5 1.39(4) . ?
 C5 C6 1.39(4) . ?
 C6 H6 0.9500 . ?
 C6 C7 1.37(3) . ?
 C7 H7 0.9500 . ?
 C8 H8A 0.9800 . ?
 C8 H8B 0.9800 . ?
 C8 H8C 0.9800 . ?
 C9 H9A 0.9900 . ?
 C9 H9B 0.9900 . ?
 C9 C10 1.54(3) . ?
 C10 H10A 0.9900 . ?
 C10 H10B 0.9900 . ?
 C11 C12 1.48(3) . ?
 C12 C13 1.41(3) . ?
 C12 C17 1.39(3) . ?
 C13 H13 0.9500 . ?
 C13 C14 1.34(3) . ?
 C14 H14 0.9500 . ?
 C14 C15 1.39(3) . ?
 C15 C16 1.33(3) . ?
 C16 H16 0.9500 . ?
 C16 C17 1.37(3) . ?
 C17 H17 0.9500 . ?
 C18 H18A 0.9800 . ?
 C18 H18B 0.9800 . ?
 C18 H18C 0.9800 . ?
 Cl7 C19 1.71(3) . ?
 Cl8 C19 1.80(3) . ?
 Cl9 C19 1.71(3) . ?
 C19 H19 1.0000 . ?
 Cl10 C20 1.75(2) . ?
 Cl11 C20 1.74(3) . ?
 Cl12 C20 1.74(3) . ?
 C20 H20 1.0000 . ?
 Cl51 C55 1.75(2) . ?
 Cl52 C65 1.76(2) . ?
 O51 H51 0.84(4) . ?
 O51 C51 1.25(3) . ?
 O52 C61 1.28(2) . ?
 N51 C51 1.33(3) . ?
 N51 C58 1.49(3) . ?
 N51 C59 1.46(3) . ?
 N52 C60 1.47(3) . ?
 N52 C61 1.31(3) . ?
 N52 C68 1.46(3) . ?
 C51 C52 1.52(3) . ?
 C52 C53 1.40(3) . ?
 C52 C57 1.37(3) . ?
 C53 H53 0.9500 . ?
 C53 C54 1.41(3) . ?
 C54 H54 0.9500 . ?
 C54 C55 1.33(3) . ?
 C55 C56 1.41(3) . ?
 C56 H56 0.9500 . ?
 C56 C57 1.38(3) . ?
 C57 H57 0.9500 . ?
 C58 H58A 0.9800 . ?
 C58 H58B 0.9800 . ?
 C58 H58C 0.9800 . ?
 C59 H59A 0.9900 . ?
 C59 H59B 0.9900 . ?
 C59 C60 1.55(3) . ?
 C60 H60A 0.9900 . ?
 C60 H60B 0.9900 . ?
 C61 C62 1.50(3) . ?
 C62 C63 1.40(3) . ?
 C62 C67 1.36(3) . ?
 C63 H63 0.9500 . ?
 C63 C64 1.36(3) . ?
 C64 H64 0.9500 . ?
 C64 C65 1.35(3) . ?
 C65 C66 1.38(3) . ?
 C66 H66 0.9500 . ?
 C66 C67 1.41(3) . ?
 C67 H67 0.9500 . ?
 C68 H68A 0.9800 . ?
 C68 H68B 0.9800 . ?
 C68 H68C 0.9800 . ?
 Cl57 C69 1.74(3) . ?
 Cl58 C69 1.75(3) . ?
 Cl59 C69 1.77(3) . ?
 C69 H69 1.0000 . ?
 Cl60 C70 1.78(3) . ?
 Cl61 C70 1.71(3) . ?
 Cl62 C70 1.80(2) . ?
 C70 H70 1.0000 . ?

loop_
  _geom_angle_atom_site_label_1
  _geom_angle_atom_site_label_2
  _geom_angle_atom_site_label_3
  _geom_angle
  _geom_angle_site_symmetry_1
  _geom_angle_site_symmetry_3
  _geom_angle_publ_flag
 Cl3 Au1 Cl4 89.4(2) . . ?
 Cl3 Au1 Cl5 178.4(3) . . ?
 Cl3 Au1 Cl6 90.3(3) . . ?
 Cl5 Au1 Cl4 89.8(2) . . ?
 Cl5 Au1 Cl6 90.5(2) . . ?
 Cl6 Au1 Cl4 178.6(3) . . ?
 Cl53 Au51 Cl54 90.2(2) . . ?
 Cl55 Au51 Cl53 179.1(3) . . ?
 Cl55 Au51 Cl54 89.1(2) . . ?
 Cl55 Au51 Cl56 90.1(3) . . ?
 Cl56 Au51 Cl53 90.5(3) . . ?
 Cl56 Au51 Cl54 179.1(3) . . ?
 C1 O1 H1 121(10) . . ?
 C1 N1 C8 128(2) . . ?
 C1 N1 C9 116.1(19) . . ?
 C8 N1 C9 115.9(17) . . ?
 C10 N2 C18 116.7(17) . . ?
 C11 N2 C10 119.0(19) . . ?
 C11 N2 C18 123.8(19) . . ?
 O1 C1 N1 121(2) . . ?
 O1 C1 C2 120(2) . . ?
 N1 C1 C2 120(2) . . ?
 C3 C2 C1 121(2) . . ?
 C7 C2 C1 121(2) . . ?
 C7 C2 C3 118(2) . . ?
 C2 C3 H3 118.9 . . ?
 C4 C3 C2 122(2) . . ?
 C4 C3 H3 118.9 . . ?
 C3 C4 H4 120.8 . . ?
 C3 C4 C5 118(2) . . ?
 C5 C4 H4 120.8 . . ?
 C4 C5 Cl1 119(2) . . ?
 C4 C5 C6 121(2) . . ?
 C6 C5 Cl1 121(2) . . ?
 C5 C6 H6 119.8 . . ?
 C7 C6 C5 120(2) . . ?
 C7 C6 H6 119.8 . . ?
 C2 C7 H7 119.9 . . ?
 C6 C7 C2 120(3) . . ?
 C6 C7 H7 119.9 . . ?
 N1 C8 H8A 109.5 . . ?
 N1 C8 H8B 109.5 . . ?
 N1 C8 H8C 109.5 . . ?
 H8A C8 H8B 109.5 . . ?
 H8A C8 H8C 109.5 . . ?
 H8B C8 H8C 109.5 . . ?
 N1 C9 H9A 109.2 . . ?
 N1 C9 H9B 109.2 . . ?
 N1 C9 C10 112.1(18) . . ?
 H9A C9 H9B 107.9 . . ?
 C10 C9 H9A 109.2 . . ?
 C10 C9 H9B 109.2 . . ?
 N2 C10 C9 111.3(18) . . ?
 N2 C10 H10A 109.4 . . ?
 N2 C10 H10B 109.4 . . ?
 C9 C10 H10A 109.4 . . ?
 C9 C10 H10B 109.4 . . ?
 H10A C10 H10B 108.0 . . ?
 O2 C11 N2 116(2) . . ?
 O2 C11 C12 120.7(19) . . ?
 N2 C11 C12 122.7(19) . . ?
 C13 C12 C11 127(2) . . ?
 C17 C12 C11 114(2) . . ?
 C17 C12 C13 118(2) . . ?
 C12 C13 H13 119.1 . . ?
 C14 C13 C12 122(2) . . ?
 C14 C13 H13 119.1 . . ?
 C13 C14 H14 121.3 . . ?
 C13 C14 C15 117(2) . . ?
 C15 C14 H14 121.3 . . ?
 C14 C15 Cl2 118.8(19) . . ?
 C16 C15 Cl2 118(2) . . ?
 C16 C15 C14 123(2) . . ?
 C15 C16 H16 120.0 . . ?
 C15 C16 C17 120(3) . . ?
 C17 C16 H16 120.0 . . ?
 C12 C17 H17 120.3 . . ?
 C16 C17 C12 119(2) . . ?
 C16 C17 H17 120.3 . . ?
 N2 C18 H18A 109.5 . . ?
 N2 C18 H18B 109.5 . . ?
 N2 C18 H18C 109.5 . . ?
 H18A C18 H18B 109.5 . . ?
 H18A C18 H18C 109.5 . . ?
 H18B C18 H18C 109.5 . . ?
 Cl7 C19 Cl8 110.9(17) . . ?
 Cl7 C19 Cl9 113.5(18) . . ?
 Cl7 C19 H19 106.6 . . ?
 Cl8 C19 H19 106.6 . . ?
 Cl9 C19 Cl8 112.0(16) . . ?
 Cl9 C19 H19 106.6 . . ?
 Cl10 C20 H20 107.0 . . ?
 Cl11 C20 Cl10 111.7(13) . . ?
 Cl11 C20 H20 107.0 . . ?
 Cl12 C20 Cl10 111.6(14) . . ?
 Cl12 C20 Cl11 112.1(16) . . ?
 Cl12 C20 H20 107.0 . . ?
 C51 O51 H51 101(10) . . ?
 C51 N51 C58 124.9(19) . . ?
 C51 N51 C59 118(2) . . ?
 C59 N51 C58 117.1(17) . . ?
 C61 N52 C60 118.3(19) . . ?
 C61 N52 C68 125.3(19) . . ?
 C68 N52 C60 116.3(17) . . ?
 O51 C51 N51 118(2) . . ?
 O51 C51 C52 120.7(19) . . ?
 N51 C51 C52 121(2) . . ?
 C53 C52 C51 117(2) . . ?
 C57 C52 C51 120.4(19) . . ?
 C57 C52 C53 122(2) . . ?
 C52 C53 H53 121.4 . . ?
 C52 C53 C54 117(2) . . ?
 C54 C53 H53 121.4 . . ?
 C53 C54 H54 120.2 . . ?
 C55 C54 C53 119.6(19) . . ?
 C55 C54 H54 120.2 . . ?
 C54 C55 Cl51 118.4(17) . . ?
 C54 C55 C56 123(2) . . ?
 C56 C55 Cl51 118.1(18) . . ?
 C55 C56 H56 121.2 . . ?
 C57 C56 C55 118(2) . . ?
 C57 C56 H56 121.2 . . ?
 C52 C57 C56 120(2) . . ?
 C52 C57 H57 120.1 . . ?
 C56 C57 H57 120.1 . . ?
 N51 C58 H58A 109.5 . . ?
 N51 C58 H58B 109.5 . . ?
 N51 C58 H58C 109.5 . . ?
 H58A C58 H58B 109.5 . . ?
 H58A C58 H58C 109.5 . . ?
 H58B C58 H58C 109.5 . . ?
 N51 C59 H59A 109.2 . . ?
 N51 C59 H59B 109.2 . . ?
 N51 C59 C60 112.2(18) . . ?
 H59A C59 H59B 107.9 . . ?
 C60 C59 H59A 109.2 . . ?
 C60 C59 H59B 109.2 . . ?
 N52 C60 C59 108.8(17) . . ?
 N52 C60 H60A 109.9 . . ?
 N52 C60 H60B 109.9 . . ?
 C59 C60 H60A 109.9 . . ?
 C59 C60 H60B 109.9 . . ?
 H60A C60 H60B 108.3 . . ?
 O52 C61 N52 118(2) . . ?
 O52 C61 C62 118.4(18) . . ?
 N52 C61 C62 124(2) . . ?
 C63 C62 C61 118(2) . . ?
 C67 C62 C61 120.6(19) . . ?
 C67 C62 C63 121(2) . . ?
 C62 C63 H63 120.5 . . ?
 C64 C63 C62 119(2) . . ?
 C64 C63 H63 120.5 . . ?
 C63 C64 H64 119.8 . . ?
 C65 C64 C63 120(2) . . ?
 C65 C64 H64 119.8 . . ?
 C64 C65 Cl52 118.1(17) . . ?
 C64 C65 C66 122(2) . . ?
 C66 C65 Cl52 119.7(18) . . ?
 C65 C66 H66 121.1 . . ?
 C65 C66 C67 118(2) . . ?
 C67 C66 H66 121.1 . . ?
 C62 C67 C66 119.3(19) . . ?
 C62 C67 H67 120.3 . . ?
 C66 C67 H67 120.3 . . ?
 N52 C68 H68A 109.5 . . ?
 N52 C68 H68B 109.5 . . ?
 N52 C68 H68C 109.5 . . ?
 H68A C68 H68B 109.5 . . ?
 H68A C68 H68C 109.5 . . ?
 H68B C68 H68C 109.5 . . ?
 Cl57 C69 Cl58 108.1(17) . . ?
 Cl57 C69 Cl59 112.5(15) . . ?
 Cl57 C69 H69 109.1 . . ?
 Cl58 C69 Cl59 108.8(17) . . ?
 Cl58 C69 H69 109.1 . . ?
 Cl59 C69 H69 109.1 . . ?
 Cl60 C70 Cl62 108.8(14) . . ?
 Cl60 C70 H70 108.0 . . ?
 Cl61 C70 Cl60 112.3(15) . . ?
 Cl61 C70 Cl62 111.7(14) . . ?
 Cl61 C70 H70 108.0 . . ?
 Cl62 C70 H70 108.0 . . ?

loop_
  _geom_hbond_atom_site_label_D
  _geom_hbond_atom_site_label_H
  _geom_hbond_atom_site_label_A
  _geom_hbond_distance_DH
  _geom_hbond_distance_HA
  _geom_hbond_distance_DA
  _geom_hbond_angle_DHA
  _geom_hbond_site_symmetry_A
  _geom_hbond_publ_flag
 O1 H1 O2 0.84(4) 1.60(5) 2.437(17) 172(26) 1_455 yes
 O51 H51 O52 0.84(4) 1.65(12) 2.437(18) 155(26) 1_655 yes

loop_
  _geom_torsion_atom_site_label_1
  _geom_torsion_atom_site_label_2
  _geom_torsion_atom_site_label_3
  _geom_torsion_atom_site_label_4
  _geom_torsion
  _geom_torsion_site_symmetry_1
  _geom_torsion_site_symmetry_2
  _geom_torsion_site_symmetry_3
  _geom_torsion_site_symmetry_4
  _geom_torsion_publ_flag
 Cl1 C5 C6 C7 179(2) . . . . ?
 Cl2 C15 C16 C17 -179.7(19) . . . . ?
 O1 C1 C2 C3 -125(3) . . . . ?
 O1 C1 C2 C7 48(4) . . . . ?
 O2 C11 C12 C13 122(3) . . . . ?
 O2 C11 C12 C17 -55(3) . . . . ?
 N1 C1 C2 C3 59(3) . . . . ?
 N1 C1 C2 C7 -128(3) . . . . ?
 N1 C9 C10 N2 -177.3(19) . . . . ?
 N2 C11 C12 C13 -51(4) . . . . ?
 N2 C11 C12 C17 132(3) . . . . ?
 C1 N1 C9 C10 -85(2) . . . . ?
 C1 C2 C3 C4 172(2) . . . . ?
 C1 C2 C7 C6 -173(2) . . . . ?
 C2 C3 C4 C5 2(4) . . . . ?
 C3 C2 C7 C6 0(4) . . . . ?
 C3 C4 C5 Cl1 -179.9(18) . . . . ?
 C3 C4 C5 C6 -2(4) . . . . ?
 C4 C5 C6 C7 1(4) . . . . ?
 C5 C6 C7 C2 0(4) . . . . ?
 C7 C2 C3 C4 -1(3) . . . . ?
 C8 N1 C1 O1 -172(2) . . . . ?
 C8 N1 C1 C2 4(4) . . . . ?
 C8 N1 C9 C10 94(2) . . . . ?
 C9 N1 C1 O1 7(4) . . . . ?
 C9 N1 C1 C2 -177(2) . . . . ?
 C10 N2 C11 O2 4(3) . . . . ?
 C10 N2 C11 C12 177(2) . . . . ?
 C11 N2 C10 C9 77(2) . . . . ?
 C11 C12 C13 C14 -176(2) . . . . ?
 C11 C12 C17 C16 -180(2) . . . . ?
 C12 C13 C14 C15 -2(4) . . . . ?
 C13 C12 C17 C16 3(4) . . . . ?
 C13 C14 C15 Cl2 -176.8(18) . . . . ?
 C13 C14 C15 C16 0(4) . . . . ?
 C14 C15 C16 C17 3(4) . . . . ?
 C15 C16 C17 C12 -5(4) . . . . ?
 C17 C12 C13 C14 1(4) . . . . ?
 C18 N2 C10 C9 -96(2) . . . . ?
 C18 N2 C11 O2 176(2) . . . . ?
 C18 N2 C11 C12 -11(4) . . . . ?
 Cl51 C55 C56 C57 -177.6(16) . . . . ?
 Cl52 C65 C66 C67 179.5(15) . . . . ?
 O51 C51 C52 C53 -53(3) . . . . ?
 O51 C51 C52 C57 123(2) . . . . ?
 O52 C61 C62 C63 50(3) . . . . ?
 O52 C61 C62 C67 -127(2) . . . . ?
 N51 C51 C52 C53 123(2) . . . . ?
 N51 C51 C52 C57 -61(3) . . . . ?
 N51 C59 C60 N52 -177.5(17) . . . . ?
 N52 C61 C62 C63 -130(2) . . . . ?
 N52 C61 C62 C67 53(3) . . . . ?
 C51 N51 C59 C60 83(2) . . . . ?
 C51 C52 C53 C54 178.3(19) . . . . ?
 C51 C52 C57 C56 -176.0(19) . . . . ?
 C52 C53 C54 C55 -3(3) . . . . ?
 C53 C52 C57 C56 0(3) . . . . ?
 C53 C54 C55 Cl51 179.8(17) . . . . ?
 C53 C54 C55 C56 1(3) . . . . ?
 C54 C55 C56 C57 1(3) . . . . ?
 C55 C56 C57 C52 -2(3) . . . . ?
 C57 C52 C53 C54 2(3) . . . . ?
 C58 N51 C51 O51 172(2) . . . . ?
 C58 N51 C51 C52 -4(3) . . . . ?
 C58 N51 C59 C60 -94(2) . . . . ?
 C59 N51 C51 O51 -4(3) . . . . ?
 C59 N51 C51 C52 -180(2) . . . . ?
 C60 N52 C61 O52 4(3) . . . . ?
 C60 N52 C61 C62 -176(2) . . . . ?
 C61 N52 C60 C59 -82(2) . . . . ?
 C61 C62 C63 C64 -176(2) . . . . ?
 C61 C62 C67 C66 178.2(18) . . . . ?
 C62 C63 C64 C65 -2(3) . . . . ?
 C63 C62 C67 C66 1(3) . . . . ?
 C63 C64 C65 Cl52 -177.3(18) . . . . ?
 C63 C64 C65 C66 0(4) . . . . ?
 C64 C65 C66 C67 2(3) . . . . ?
 C65 C66 C67 C62 -3(3) . . . . ?
 C67 C62 C63 C64 1(3) . . . . ?
 C68 N52 C60 C59 96(2) . . . . ?
 C68 N52 C61 O52 -174(2) . . . . ?
 C68 N52 C61 C62 6(4) . . . . ?

_shelx_res_file
;
TITL JL21026Mo-P1-twin-mask0p75_inverted_twin1_hklf4 in P1
    jl21026.res
    created by SHELXL-2018/3 at 11:44:59 on 13-Jul-2021
REM P1 (#1 in standard setting)
REM CrysAlisPro recorded range (K): Min=120.0; max=120.1; aver:120.0
CELL 0.71073 7.92042 13.398214 16.923744 100.6794 102.8293 106.1128
ZERR 2 0.000739 0.001294 0.001537 0.0079 0.0078 0.0083
LATT -1
SFAC C H Au Cl N O
UNIT 40 42 2 24 4 4
EQIV $1 -1+X,+Y,+Z
EQIV $2 1+X,+Y,+Z
RIGU
SIMU
DELU
DFIX 0.84 O1 H1
DFIX 0.84 O51 H51
SADI O2 C11 O52 C61

L.S. 16
PLAN  20
SIZE 0.04 0.13 0.15
TEMP -153.14(10)
CONF
HTAB O1 O2_$1
HTAB O51 O52_$2
BOND
MORE -1
BOND $H
fmap 2 53
acta
REM <olex2.extras>
REM <HklSrc "%.\\JL21026.hkl">
REM </olex2.extras>

WGHT    0.055900
BASF   0.50914
FVAR       1.13420
AU1   3    0.887391    0.745920    0.752821    11.00000    0.01924    0.01873 =
         0.02441    0.00136    0.00664    0.00614
CL3   4    0.974087    0.715673    0.880987    11.00000    0.05259    0.05000 =
         0.03170    0.01964    0.01871    0.02953
CL4   4    1.159727    0.737512    0.731879    11.00000    0.02238    0.03442 =
         0.02807    0.00636    0.00886    0.01444
CL5   4    0.800915    0.771579    0.622579    11.00000    0.02607    0.05860 =
         0.02936    0.01218    0.00738    0.01872
CL6   4    0.618877    0.758351    0.775827    11.00000    0.02487    0.02459 =
         0.05914    0.00889    0.02447    0.00923
AU51  3    0.114969    0.256470    0.247760    11.00000    0.01911    0.02165 =
         0.02280    0.00118    0.00166    0.00459
CL53  4    0.122032    0.292915    0.121793    11.00000    0.03207    0.05919 =
         0.02095    0.00390    0.00460    0.01256
CL54  4   -0.186355    0.245472    0.220011    11.00000    0.02138    0.03391 =
         0.03294    0.00709    0.00862    0.00965
CL55  4    0.103506    0.218174    0.371737    11.00000    0.03851    0.03695 =
         0.03337    0.01396    0.00667    0.00626
CL56  4    0.416307    0.268466    0.277611    11.00000    0.01852    0.02651 =
         0.06101    0.01431    0.00729    0.00471
CL1   4   -0.233565   -0.169648    1.281225    11.00000    0.02605    0.06984 =
         0.02903    0.02645    0.01585    0.01816
CL2   4    1.272401    0.225699    0.729835    11.00000    0.02736    0.04010 =
         0.04106    0.02000    0.01731    0.00938
O1    6    0.146442   -0.005729    0.995630    11.00000    0.01621    0.04866 =
         0.03331    0.02379    0.00897    0.01682
H1    2    0.034720   -0.011656    0.985258    11.00000   -1.20000
O2    6    0.831587   -0.006210    0.974536    11.00000    0.01902    0.04909 =
         0.02943    0.02598    0.01934    0.01906
N1    5    0.401398   -0.012579    1.075485    11.00000    0.01819    0.02029 =
         0.02026    0.00869    0.00765    0.00868
N2    5    0.580725   -0.001416    0.887208    11.00000    0.01626    0.02556 =
         0.01925    0.00901    0.00962    0.00978
C1    1    0.224910   -0.024251    1.058674    11.00000    0.02016    0.02113 =
         0.02544    0.01309    0.00811    0.00818
C2    1    0.118640   -0.067434    1.114902    11.00000    0.01421    0.01806 =
         0.02590    0.01031    0.00739    0.01294
C3    1    0.170372   -0.014737    1.200911    11.00000    0.01311    0.01964 =
         0.02459    0.00900    0.00768    0.00630
AFIX  43
H3    2    0.282944    0.043428    1.224442    11.00000   -1.20000
AFIX   0
C4    1    0.063832   -0.044452    1.251996    11.00000    0.02082    0.03896 =
         0.01710    0.00853    0.00588    0.01487
AFIX  43
H4    2    0.099682   -0.006370    1.309559    11.00000   -1.20000
AFIX   0
C5    1   -0.097550   -0.131518    1.217435    11.00000    0.01598    0.04485 =
         0.02471    0.02447    0.01004    0.01412
C6    1   -0.152201   -0.185093    1.132632    11.00000    0.00961    0.03549 =
         0.02678    0.01633    0.00111    0.00895
AFIX  43
H6    2   -0.264031   -0.243884    1.109633    11.00000   -1.20000
AFIX   0
C7    1   -0.045715   -0.153657    1.081852    11.00000    0.01487    0.02882 =
         0.02306    0.00662    0.00698    0.01228
AFIX  43
H7    2   -0.084183   -0.190804    1.023977    11.00000   -1.20000
AFIX   0
C8    1    0.510714   -0.042860    1.141008    11.00000    0.01347    0.04360 =
         0.03609    0.02760    0.01402    0.01079
AFIX 137
H8A   2    0.580392    0.020757    1.188235    11.00000   -1.50000
H8B   2    0.595955   -0.072898    1.119204    11.00000   -1.50000
H8C   2    0.430087   -0.097017    1.160118    11.00000   -1.50000
AFIX   0
C9    1    0.498151    0.035474    1.019191    11.00000    0.01656    0.02300 =
         0.01958    0.00995    0.00911    0.00572
AFIX  23
H9A   2    0.630098    0.071181    1.049871    11.00000   -1.20000
H9B   2    0.448275    0.091135    1.002852    11.00000   -1.20000
AFIX   0
C10   1    0.477863   -0.049169    0.939501    11.00000    0.01750    0.02798 =
         0.02048    0.01239    0.00879    0.00905
AFIX  23
H10A  2    0.522401   -0.106711    0.955680    11.00000   -1.20000
H10B  2    0.346496   -0.082351    0.907144    11.00000   -1.20000
AFIX   0
C11   1    0.761341    0.021907    0.909244    11.00000    0.01897    0.02859 =
         0.02311    0.01753    0.01099    0.01511
C12   1    0.876635    0.066402    0.857587    11.00000    0.01039    0.02052 =
         0.01421    0.00656    0.00100    0.00776
C13   1    0.850450    0.025534    0.771186    11.00000    0.01681    0.02892 =
         0.01455   -0.00031    0.00057    0.01056
AFIX  43
H13   2    0.745355   -0.035032    0.739798    11.00000   -1.20000
AFIX   0
C14   1    0.969772    0.069822    0.732207    11.00000    0.02585    0.02920 =
         0.01977    0.00762    0.00875    0.01787
AFIX  43
H14   2    0.953609    0.040388    0.674396    11.00000   -1.20000
AFIX   0
C15   1    1.118801    0.160903    0.779824    11.00000    0.02266    0.03217 =
         0.02019    0.01675    0.01090    0.01786
C16   1    1.146483    0.204265    0.860885    11.00000    0.01067    0.03278 =
         0.01726    0.00790   -0.00134    0.00803
AFIX  43
H16   2    1.246443    0.268563    0.889979    11.00000   -1.20000
AFIX   0
C17   1    1.030406    0.155994    0.902500    11.00000    0.01185    0.02346 =
         0.00892    0.00205    0.00001    0.00879
AFIX  43
H17   2    1.054702    0.183405    0.961302    11.00000   -1.20000
AFIX   0
C18   1    0.479142    0.030658    0.818588    11.00000    0.01598    0.02036 =
         0.01924    0.00846    0.00353    0.00780
AFIX 137
H18A  2    0.562751    0.091317    0.806709    11.00000   -1.50000
H18B  2    0.380623    0.052282    0.834889    11.00000   -1.50000
H18C  2    0.426042   -0.030151    0.768224    11.00000   -1.50000
AFIX   0

CL7   4    0.545149    0.598118    0.929763    11.00000    0.05005    0.09946 =
         0.04547    0.00081    0.01609    0.01333
CL8   4    0.318604    0.671208    1.023257    11.00000    0.05188    0.06022 =
         0.02955    0.00600    0.00290    0.01893
CL9   4    0.158195    0.486411    0.876698    11.00000    0.05770    0.03077 =
         0.08321   -0.00432   -0.00435    0.00172
C19   1    0.331674    0.606929    0.922651    11.00000    0.05257    0.04921 =
         0.04064    0.00866    0.01314    0.00846
AFIX  13
H19   2    0.313792    0.655252    0.885366    11.00000   -1.20000
AFIX   0

CL10  4    0.515943    0.342485    1.070656    11.00000    0.03288    0.06176 =
         0.03136    0.00490    0.01016    0.01444
CL11  4    0.695799    0.313650    0.941047    11.00000    0.04419    0.06314 =
         0.02787    0.00334    0.01278    0.01611
CL12  4    0.858023    0.501971    1.082238    11.00000    0.04211    0.04972 =
         0.06046   -0.00185    0.00056   -0.00074
C20   1    0.726208    0.366203    1.047287    11.00000    0.02173    0.04693 =
         0.02231    0.00013   -0.00431    0.01026
AFIX  13
H20   2    0.795772    0.327002    1.078927    11.00000   -1.20000
AFIX   0

CL51  4    0.801415    0.280213    0.747588    11.00000    0.02992    0.04262 =
         0.03115    0.01989    0.00613    0.02291
CL52  4   -0.803973    0.722960    0.212742    11.00000    0.02939    0.03044 =
         0.03386    0.01679   -0.00001    0.01419
O51   6    0.347324    0.499073    0.488722    11.00000    0.01208    0.04080 =
         0.03175    0.02046    0.00994    0.01286
H51   2    0.447517    0.488319    0.491657    11.00000   -1.20000
O52   6   -0.358544    0.498524    0.467388    11.00000    0.01080    0.04986 =
         0.02855    0.02073    0.01017    0.01514
N51   5    0.166035    0.487428    0.571227    11.00000    0.01557    0.02747 =
         0.02469    0.01328    0.00654    0.01273
N52   5   -0.174725    0.506268    0.385533    11.00000    0.01434    0.01922 =
         0.02191    0.00364    0.00415    0.00650
C51   1    0.315219    0.475170    0.552865    11.00000    0.01244    0.01624 =
         0.02000    0.00549    0.00542    0.00409
C52   1    0.434888    0.425671    0.604598    11.00000    0.01047    0.01076 =
         0.02207    0.00752    0.00498   -0.00149
C53   1    0.461618    0.334355    0.561997    11.00000    0.01825    0.01799 =
         0.01586    0.00637   -0.00008    0.00502
AFIX  43
H53   2    0.404500    0.303478    0.503457    11.00000   -1.20000
AFIX   0
C54   1    0.576907    0.289730    0.609379    11.00000    0.02294    0.01029 =
         0.01849   -0.00048    0.00578    0.00914
AFIX  43
H54   2    0.594977    0.225807    0.583516    11.00000   -1.20000
AFIX   0
C55   1    0.660169    0.337774    0.690537    11.00000    0.01752    0.02244 =
         0.01418    0.01146    0.00661    0.00954
C56   1    0.637537    0.431438    0.733352    11.00000    0.02069    0.02175 =
         0.00978    0.00276    0.00167    0.00310
AFIX  43
H56   2    0.700771    0.464412    0.791159    11.00000   -1.20000
AFIX   0
C57   1    0.520296    0.473615    0.688382    11.00000    0.01750    0.01626 =
         0.02257    0.00447    0.00351    0.00543
AFIX  43
H57   2    0.498764    0.535713    0.715376    11.00000   -1.20000
AFIX   0
C58   1    0.094698    0.450089    0.638746    11.00000    0.01485    0.03160 =
         0.02761    0.01021    0.01091    0.00646
AFIX 137
H58A  2    0.160000    0.403880    0.660209    11.00000   -1.50000
H58B  2   -0.036835    0.409268    0.615925    11.00000   -1.50000
H58C  2    0.113977    0.512542    0.684546    11.00000   -1.50000
AFIX   0
C59   1    0.057070    0.535130    0.518016    11.00000    0.01337    0.02264 =
         0.01388    0.00001   -0.00186    0.00907
AFIX  23
H59A  2    0.140643    0.593501    0.502746    11.00000   -1.20000
H59B  2   -0.013782    0.567443    0.550094    11.00000   -1.20000
AFIX   0
C60   1   -0.077002    0.451396    0.436866    11.00000    0.00819    0.01943 =
         0.02079    0.00013    0.00485    0.00344
AFIX  23
H60A  2   -0.008057    0.416870    0.405074    11.00000   -1.20000
H60B  2   -0.165875    0.394708    0.451283    11.00000   -1.20000
AFIX   0
C61   1   -0.317445    0.524431    0.403267    11.00000    0.01618    0.00847 =
         0.02364    0.00908    0.00835    0.00044
C62   1   -0.435379    0.573586    0.352627    11.00000    0.00671    0.01814 =
         0.01727    0.00476    0.00391    0.00147
C63   1   -0.473547    0.660829    0.395098    11.00000    0.01380    0.02101 =
         0.01055   -0.00416   -0.00326    0.00317
AFIX  43
H63   2   -0.419154    0.690620    0.453912    11.00000   -1.20000
AFIX   0
C64   1   -0.589978    0.702426    0.350793    11.00000    0.01990    0.03190 =
         0.01811    0.00218    0.00646    0.01550
AFIX  43
H64   2   -0.620053    0.760249    0.379139    11.00000   -1.20000
AFIX   0
C65   1   -0.662823    0.661949    0.266863    11.00000    0.00695    0.02752 =
         0.01630    0.00344    0.00149    0.00426
C66   1   -0.624696    0.577485    0.222735    11.00000    0.02206    0.01684 =
         0.01600    0.00537    0.00373    0.00412
AFIX  43
H66   2   -0.674363    0.551299    0.163438    11.00000   -1.20000
AFIX   0
C67   1   -0.509508    0.531243    0.268545    11.00000    0.01608    0.01797 =
         0.01619    0.00493    0.00663    0.00258
AFIX  43
H67   2   -0.484260    0.471074    0.240699    11.00000   -1.20000
AFIX   0
C68   1   -0.099008    0.539273    0.319725    11.00000    0.02563    0.02597 =
         0.03845    0.01268    0.02136    0.01233
AFIX 137
H68A  2    0.034566    0.572933    0.342280    11.00000   -1.50000
H68B  2   -0.152438    0.591043    0.299779    11.00000   -1.50000
H68C  2   -0.128280    0.476019    0.272900    11.00000   -1.50000
AFIX   0

CL57  4    0.670608    0.969064    0.484935    11.00000    0.10387    0.05047 =
         0.07387    0.01529    0.02475   -0.01018
CL58  4    0.937002    1.176397    0.536286    11.00000    0.05038    0.03635 =
         0.03154    0.01031    0.00779    0.00543
CL59  4    0.616304    1.132895    0.400253    11.00000    0.05055    0.09571 =
         0.04039    0.01068    0.00178    0.02171
C69   1    0.774775    1.077094    0.449585    11.00000    0.04972    0.04424 =
         0.03369    0.00105    0.01643    0.00577
AFIX  13
H69   2    0.838766    1.052681    0.408960    11.00000   -1.20000
AFIX   0

CL60  4    1.074347    0.809144    0.453235    11.00000    0.04143    0.05955 =
         0.02932    0.00064   -0.00422    0.02172
CL61  4    1.263602    1.000315    0.592101    11.00000    0.06542    0.03855 =
         0.05572    0.00037    0.01164    0.02766
CL62  4    1.399024    0.819387    0.579531    11.00000    0.02747    0.04544 =
         0.03459    0.01057    0.00714    0.01417
C70   1    1.202147    0.863092    0.561138    11.00000    0.02686    0.05567 =
         0.02237    0.01081    0.00500    0.02727
AFIX  13
H70   2    1.122882    0.832498    0.595202    11.00000   -1.20000
AFIX   0
HKLF 5




REM  JL21026Mo-P1-twin-mask0p75_inverted_twin1_hklf4 in P1
REM wR2 = 0.1196, GooF = S = 0.960, Restrained GooF = 0.937 for all data
REM R1 = 0.0564 for 14783 Fo > 4sig(Fo) and 0.0750 for all 19179 data
REM 678 parameters refined using 994 restraints

END

WGHT      0.0559      0.0000

REM Highest difference peak  2.449,  deepest hole -1.309,  1-sigma level  0.162
Q1    1   0.2509  0.2685  0.2617  11.00000  0.05    1.42
Q2    1   0.7492  0.7326  0.7404  11.00000  0.05    1.37
Q3    1   0.1990  0.2346  0.3033  11.00000  0.05    1.31
Q4    1   0.9779  0.7165  0.8038  11.00000  0.05    1.28
Q5    1   0.0914  0.1784  0.2188  11.00000  0.05    1.20
Q6    1   1.0171  0.7495  0.7597  11.00000  0.05    1.18
Q7    1   0.7973  0.7689  0.6960  11.00000  0.05    1.16
Q8    1   0.9095  0.8236  0.7772  11.00000  0.05    1.16
Q9    1   0.8596  0.7399  0.8200  11.00000  0.05    1.15
Q10   1  -0.0139  0.2571  0.2396  11.00000  0.05    1.14
Q11   1   0.1487  0.2625  0.1796  11.00000  0.05    1.07
Q12   1   0.0284  0.2918  0.2023  11.00000  0.05    1.03
Q13   1   0.9740  0.7985  0.7197  11.00000  0.05    1.03
Q14   1   0.8299  0.7174  0.8035  11.00000  0.05    0.97
Q15   1   0.0421  0.2262  0.2956  11.00000  0.05    0.96
Q16   1   0.0994  0.3352  0.2823  11.00000  0.05    0.82
Q17   1   0.9403  0.7727  0.7047  11.00000  0.05    0.80
Q18   1   0.2110  0.3156  0.2238  11.00000  0.05    0.80
Q19   1   0.8496  0.6672  0.7292  11.00000  0.05    0.79
Q20   1   1.1199  0.8241  0.7429  11.00000  0.05    0.72
;
_shelx_res_checksum                12452
_shelx_hkl_file
;
  -9   0   3 119.697 664.574   1
  -9   0   4 433.600 683.073   1
  -9   0   5 267.656 604.595   1
  -9   1   1 640.756 712.574   1
  -9   1   2-151.247 650.509   1
  -9   1   3 147.424 671.110   1
  -9   1   4 352.157 594.820   1
  -9   1   5 838.459 561.123   1
  -9   2   0 1265.35 841.539   1
  -9   2   1 281.663 707.984   1
  -9   2   2 1114.33 629.440   1
  -9   2   3 348.641 601.601   1
  -9   2   4 886.245 589.635   1
  -9   3  -1 1498.04 771.959   1
  -9   3   0 37.8323 700.516   1
  -9   3   1 924.081 662.681   1
  -9   3   2 113.338 599.127   1
  -9   3   3 1055.71 653.641   1
  -9   4  -2 1302.73 787.603   1
  -9   4  -1-4.31475 716.823   1
  -9   4   0 860.893 669.305   1
  -9   4   1-17.1556 648.522   1
  -9   4   2 668.575 647.325   1
  -9   5  -2 322.216 435.979   1
  -9   5  -1 2109.04 491.164   1
  -9   5   0 121.224 395.914   1
  -9   5   1 1400.32 445.100   1
  -9   5   2 115.878 439.327   1
  -9   5   3 884.640 448.384   1
  -9   5   4 198.200 398.988   1
  -9   5   5 654.118 438.185   1
  -9   5   6 166.086 454.426   1
  -9   5   7 772.028 450.223   1
  -9   5   8 318.430 433.058   1
  -9   5   9 1877.82 476.276   1
  -9   5  10-189.359 448.383   1
  -9   6  -2 835.027 466.193   1
  -9   6  -1 223.984 399.326   1
  -9   6   0 1955.43 500.539   1
  -9   6   1 317.674 406.671   1
  -9   6   2 546.614 446.589   1
  -9   6   3 98.7798 394.697   1
  -9   6   4 126.047 429.964   1
  -9   6   5 568.401 462.820   1
  -9   6   6 1923.79 494.688   1
  -9   6   7 160.192 398.139   1
  -9   6   8 1197.14 455.181   1
  -9   6   9 80.7926 457.298   1
  -9   7  -2-33.7330 417.297   1
  -9   7  -1 1163.14 481.861   1
  -9   7   0 510.341 452.745   1
  -9   7   1 690.536 423.593   1
  -9   7   2-132.899 369.269   1
  -9   7   3 169.473 406.580   1
  -9   7   4 46.9720 409.917   1
  -9   7   5 1114.02 445.108   1
  -9   7   6 179.605 432.738   1
  -9   7   7 274.789 405.544   1
  -9   7   8 109.047 446.469   1
  -9   8  -1 77.6524 436.697   1
  -9   8   0 1701.57 496.008   1
  -9   8   1 104.004 444.146   1
  -9   8   2 1079.78 455.658   1
  -9   8   3-99.2205 421.003   1
  -9   8   4 1071.42 471.322   1
  -9   8   5 133.438 434.840   1
  -9   8   6 1138.77 479.974   1
  -9   8   7-45.9711 472.346   1
  -9   9   1 712.581 439.609   1
  -9   9   2 210.910 433.368   1
  -9   9   3 201.378 466.767   1
  -9   9   4 283.784 435.627   1
   8 -11  -5 317.820 824.725  -2
  -8  -4   3 317.820 824.725   1
   8 -11  -4 3412.55 867.403  -2
  -8  -4   4 3412.55 867.403   1
   8 -11  -3 1096.04 706.804  -2
  -8  -4   5 1096.04 706.804   1
   8 -11  -2 2407.66 702.418  -2
  -8  -4   6 2407.66 702.418   1
  -8  -4   7 994.078 499.225   1
   8 -11   0 1826.86 670.096  -2
  -8  -4   8 1826.86 670.096   1
  -8  -4   9-114.577 433.821   1
  -8  -4  10 1093.36 497.087   1
   8 -10  -8 847.835 933.832  -2
  -8  -3   0 847.835 933.832   1
   8 -10  -7 1156.50 883.689  -2
  -8  -3   1 1156.50 883.689   1
  -8  -3   2-285.738 634.395   1
   8 -10  -5 2897.16 835.850  -2
  -8  -3   3 2897.16 835.850   1
   8 -10  -4 756.709 719.276  -2
  -8  -3   4 756.709 719.276   1
  -8  -3   5 1871.25 592.561   1
   8 -10  -2 1525.38 651.914  -2
  -8  -3   6 1525.38 651.914   1
  -8  -3   7 1752.19 548.999   1
  -8  -3   8 489.392 376.856   1
  -8  -3   9 717.981 481.938   1
   8  -9  -9 1623.35 976.248  -2
  -8  -2  -1 1623.35 976.248   1
   8  -9  -8 2089.93 886.846  -2
  -8  -2   0 2089.93 886.846   1
  -8  -2   1 582.694 643.076   1
   8  -9  -6 1142.18 844.938  -2
  -8  -2   2 1142.18 844.938   1
  -8  -2   3 485.274 577.271   1
   8  -9  -4 2507.89 754.045  -2
  -8  -2   4 2507.89 754.045   1
  -8  -2   5 444.884 489.946   1
   8  -9  -2 2520.18 723.444  -2
  -8  -2   6 2520.18 723.444   1
  -8  -2   7 63.2370 461.854   1
  -8  -2   8 1551.46 467.785   1
  -8  -1  -3 977.245 809.007   1
   8  -8 -10 842.608 1024.27  -2
  -8  -1  -2 842.608 1024.27   1
  -8  -1  -1 3737.21 874.628   1
   8  -8  -8 820.664 903.103  -2
  -8  -1   0 820.664 903.103   1
  -8  -1   1 1013.40 651.826   1
   8  -8  -6 2128.12 809.081  -2
  -8  -1   2 2128.12 809.081   1
  -8  -1   3 123.581 514.203   1
   8  -8  -4 506.404 748.103  -2
  -8  -1   4 506.404 748.103   1
   8  -8  -3 5732.47 829.916  -2
  -8  -1   5 5732.47 829.916   1
  -8  -1   6 430.112 462.257   1
  -8  -1   7 1396.49 468.550   1
  -8  -1   8 227.984 397.706   1
   8  -7 -12 536.051 1096.02  -2
  -8   0  -4 536.051 1096.02   1
  -8   0  -3 544.593 748.754   1
   8  -7 -10 3328.36 1038.47  -2
  -8   0  -2 3328.36 1038.47   1
  -8   0  -1 1317.90 693.825   1
   8  -7  -8 3086.28 897.567  -2
  -8   0   0 3086.28 897.567   1
  -8   0   1 650.429 585.564   1
  -8   0   2 953.084 608.095   1
  -8   0   3 675.777 596.171   1
   8  -7  -4 1109.21 668.953  -2
  -8   0   4 1109.21 668.953   1
   8  -7  -3 1958.93 664.050  -2
  -8   0   5 1958.93 664.050   1
   8  -7  -2 1838.28 579.183  -2
  -8   0   6 1838.28 579.183   1
  -8   0   7 1881.67 531.594   1
   8  -6 -13 1372.78 1071.36  -2
  -8   1  -5 1372.78 1071.36   1
   8  -6 -12 2245.33 1031.25  -2
  -8   1  -4 2245.33 1031.25   1
  -8   1  -3 400.565 736.202   1
   8  -6 -10 1821.74 988.408  -2
  -8   1  -2 1821.74 988.408   1
   8  -6  -9 2015.08 959.036  -2
  -8   1  -1 2015.08 959.036   1
  -8   1   0 430.732 591.905   1
  -8   1   1 749.340 621.941   1
  -8   1   2 985.336 572.126   1
  -8   1   3 306.956 550.904   1
  -8   1   4 486.182 539.647   1
   8  -6  -3 2272.60 665.601  -2
  -8   1   5 2272.60 665.601   1
  -8   1   6 314.746 474.481   1
  -8   2  -5 867.667 754.952   1
   8  -5 -12 2065.47 1124.22  -2
  -8   2  -4 2065.47 1124.22   1
   8  -5 -11 2548.71 1031.68  -2
  -8   2  -3 2548.71 1031.68   1
   8  -5 -10 2856.13 978.558  -2
  -8   2  -2 2856.13 978.558   1
  -8   2  -1 1926.21 710.575   1
  -8   2   0 997.388 643.377   1
   8  -5  -7 4995.85 964.906  -2
  -8   2   1 4995.85 964.906   1
  -8   2   2 3021.82 698.435   1
  -8   2   3 1389.51 603.265   1
  -8   2   4 688.642 525.321   1
   8  -5  -3 2797.28 686.425  -2
  -8   2   5 2797.28 686.425   1
  -8   2   6 1760.51 514.719   1
   8  -4 -14 719.326 1187.21  -2
  -8   3  -6 719.326 1187.21   1
   8  -4 -13 443.039 1070.87  -2
  -8   3  -5 443.039 1070.87   1
  -8   3  -4-83.6175 701.027   1
  -8   3  -3 181.405 745.468   1
   8  -4 -10 1105.58 949.767  -2
  -8   3  -2 1105.58 949.767   1
   8  -4  -9 4528.17 1055.42  -2
  -8   3  -1 4528.17 1055.42   1
  -8   3   0 650.701 682.613   1
   8  -4  -7 2165.71 796.477  -2
  -8   3   1 2165.71 796.477   1
  -8   3   2 365.773 583.389   1
  -8   3   3 283.149 542.263   1
  -8   3   4 107.812 513.315   1
  -8   3   5 2408.77 570.430   1
  -8   4  -5 1232.48 763.822   1
  -8   4  -4 1688.70 781.839   1
  -8   4  -3 925.207 396.680   1
  -8   4  -2 592.724 339.744   1
  -8   4  -1 3089.22 417.897   1
  -8   4   0 1275.11 340.337   1
  -8   4   1 1485.79 339.457   1
  -8   4   2 1067.39 325.237   1
  -8   4   3 1934.73 352.726   1
  -8   4   4 704.629 305.258   1
  -8   4   5 1960.37 454.078   1
  -8   4   6 1774.54 452.854   1
  -8   4   7 1312.79 424.139   1
  -8   4   8 663.151 392.469   1
  -8   4   9 1116.65 428.655   1
  -8   4  10 1025.97 424.293   1
  -8   4  14 241.112 600.607   1
  -8   5  -6 450.242 366.850   1
  -8   5  -5 1031.28 413.910   1
  -8   5  -4 636.927 401.025   1
  -8   5  -3 837.703 379.446   1
  -8   5  -2 189.321 358.143   1
  -8   5  -1 958.940 415.107   1
  -8   5   0 371.952 378.882   1
  -8   5   1 1987.81 469.323   1
  -8   5   2 1263.15 406.160   1
  -8   5   3 1994.10 450.666   1
  -8   5   4-125.059 366.475   1
  -8   5   5 833.414 394.979   1
  -8   5   6 755.146 421.645   1
  -8   5   7 2911.67 493.380   1
  -8   5   8 660.516 403.331   1
  -8   5   9 1637.36 440.049   1
  -8   5  10 373.585 390.233   1
  -8   5  11 1167.29 402.146   1
  -8   5  12 216.738 418.084   1
  -8   5  13 484.426 531.051   1
  -8   6  -7 1121.33 450.177   1
  -8   6  -6-16.2567 405.689   1
  -8   6  -5 565.431 362.830   1
  -8   6  -4 1081.57 420.931   1
  -8   6  -3 1931.07 463.676   1
  -8   6  -2 454.572 371.105   1
  -8   6  -1 2630.63 468.390   1
  -8   6   0 1577.86 432.896   1
  -8   6   1 2090.49 455.262   1
  -8   6   2 772.335 393.074   1
  -8   6   3 395.248 341.450   1
  -8   6   4 747.522 378.541   1
  -8   6   5 481.545 391.896   1
  -8   6   6 1824.20 482.699   1
  -8   6   7 2351.58 481.272   1
  -8   6   8 1137.05 416.523   1
  -8   6   9 723.535 390.609   1
  -8   6  10 507.747 383.362   1
  -8   6  11 390.462 409.716   1
  -8   6  12 793.914 399.154   1
  -8   6  13 454.350 340.666   1
  -8   7  -7 574.394 410.662   1
  -8   7  -6 459.501 371.931   1
  -8   7  -5-35.7128 344.807   1
  -8   7  -4 647.804 417.339   1
  -8   7  -3 1208.33 435.749   1
  -8   7  -2 557.555 380.893   1
  -8   7  -1 1382.88 415.439   1
  -8   7   0 736.228 383.378   1
  -8   7   1 1332.27 419.659   1
  -8   7   2 668.301 383.614   1
  -8   7   3 1079.31 413.481   1
  -8   7   4 600.875 374.171   1
  -8   7   5 688.674 398.233   1
  -8   7   6 1367.60 424.364   1
  -8   7   7 809.138 412.623   1
  -8   7   8 1809.08 459.845   1
  -8   7   9 1979.16 496.987   1
  -8   7  10 680.305 424.756   1
  -8   7  11 550.767 385.975   1
  -8   7  12 585.104 327.509   1
  -8   8  -6-83.2332 389.389   1
  -8   8  -5 1104.28 454.062   1
  -8   8  -4 698.675 389.039   1
  -8   8  -3 1394.95 463.881   1
  -8   8  -2 617.613 383.786   1
  -8   8  -1 1543.91 439.272   1
  -8   8   0 870.906 377.439   1
  -8   8   1 1751.13 462.328   1
  -8   8   2 406.427 375.882   1
  -8   8   3 1089.30 435.664   1
  -8   8   4 607.001 379.515   1
  -8   8   5 336.623 378.765   1
  -8   8   6 1070.68 454.800   1
  -8   8   7 1160.83 419.902   1
  -8   8   8 652.682 403.670   1
  -8   8   9 1026.07 416.563   1
  -8   8  10 633.004 416.259   1
  -8   8  11 540.363 388.423   1
  -8   9  -6 484.716 394.228   1
  -8   9  -5 302.130 407.968   1
  -8   9  -4 409.095 387.140   1
  -8   9  -3 942.671 416.986   1
  -8   9  -2 193.036 376.472   1
  -8   9  -1 743.410 426.476   1
  -8   9   0 928.633 390.694   1
  -8   9   1 933.180 402.972   1
  -8   9   2 722.318 409.738   1
  -8   9   3 1846.69 460.416   1
  -8   9   4 1199.45 456.661   1
  -8   9   5 730.157 420.598   1
  -8   9   6 341.570 417.467   1
  -8   9   7 264.322 410.693   1
  -8   9   8 2276.14 495.715   1
  -8   9   9 1134.47 463.809   1
  -8   9  10 936.662 456.930   1
  -8  10  -5 1230.03 451.560   1
  -8  10  -4 341.742 422.008   1
  -8  10  -3 1757.43 481.356   1
  -8  10  -2 547.332 401.593   1
  -8  10  -1 1247.52 471.686   1
  -8  10   0 1896.80 499.112   1
  -8  10   1 743.890 398.484   1
  -8  10   2 1028.71 424.819   1
  -8  10   3 910.527 441.149   1
  -8  10   4 765.847 427.895   1
  -8  10   5 720.302 444.601   1
  -8  10   6 833.783 473.425   1
  -8  10   7 648.674 446.168   1
  -8  10   8 1156.29 483.201   1
  -8  11  -4 68.0273 456.748   1
  -8  11  -3 561.774 448.661   1
  -8  11  -2 494.061 422.371   1
  -8  11  -1 421.926 421.808   1
  -8  11   0 546.203 432.180   1
  -8  11   1 151.203 377.663   1
  -8  11   2 586.058 435.845   1
  -8  11   3 504.602 434.107   1
  -8  11   4 1245.55 486.345   1
  -8  11   5 452.124 442.161   1
  -8  11   6 805.567 411.219   1
  -8  12  -1 1286.89 489.310   1
  -8  12   0 670.202 436.232   1
  -8  12   1 1648.93 508.241   1
  -8  12   2 895.345 471.159   1
  -8  12   3 736.684 443.372   1
  -7  -7   4 2115.67 623.978   1
  -7  -7   5 566.994 550.388   1
  -7  -7   6 1994.22 617.906   1
  -7  -7   7 636.996 527.589   1
  -7  -7   8 1259.83 506.294   1
  -7  -7   9 1112.25 488.838   1
  -7  -6   1 1807.17 635.046   1
  -7  -6   2 263.966 577.783   1
  -7  -6   3 1598.84 622.398   1
  -7  -6   4 569.296 546.040   1
  -7  -6   5 2674.95 620.700   1
  -7  -6   6 773.868 488.607   1
  -7  -6   7 1207.41 545.393   1
  -7  -6   8 299.829 480.322   1
  -7  -6   9 1705.27 498.008   1
  -7  -6  10 1163.32 470.467   1
  -7  -6  11 1602.67 504.738   1
  -7  -6  12 1110.84 424.955   1
  -7  -5  -1 639.209 678.072   1
  -7  -5   0 1620.13 722.807   1
  -7  -5   1 199.196 580.453   1
  -7  -5   2 2392.87 645.806   1
  -7  -5   3 285.694 535.475   1
  -7  -5   4 1641.45 564.776   1
  -7  -5   5 1036.74 482.741   1
  -7  -5   6 2588.55 563.012   1
  -7  -5   7 769.243 454.529   1
  -7  -5   8 2120.52 512.651   1
  -7  -5   9 663.763 404.961   1
  -7  -5  10 919.071 422.085   1
  -7  -5  11 1555.16 448.584   1
  -7  -5  12 2276.34 476.695   1
  -7  -4  -3 936.750 705.298   1
  -7  -4  -2 248.353 657.621   1
  -7  -4  -1 2963.16 747.744   1
  -7  -4   0 759.762 603.949   1
  -7  -4   1 790.326 545.139   1
  -7  -4   2 419.487 513.854   1
  -7  -4   3 2818.28 593.010   1
  -7  -4   4 239.457 446.409   1
  -7  -4   5 2569.93 560.007   1
  -7  -4   6 1535.61 490.471   1
  -7  -4   7 2326.38 502.893   1
  -7  -4   8 896.340 410.009   1
  -7  -4   9 1105.32 405.735   1
  -7  -4  10 298.818 375.525   1
  -7  -4  11 1507.85 398.291   1
  -7  -3  -5 602.292 757.679   1
  -7  -3  -4 1432.73 776.653   1
  -7  -3  -3 474.427 670.857   1
  -7  -3  -2 3160.32 806.594   1
  -7  -3  -1 333.283 573.682   1
  -7  -3   0 3134.08 722.233   1
  -7  -3   1 1172.41 563.457   1
  -7  -3   2 4510.92 700.527   1
  -7  -3   3 646.529 454.583   1
  -7  -3   4 1393.66 464.593   1
  -7  -3   5 557.220 445.010   1
  -7  -3   6 6944.72 693.525   1
  -7  -3   7 1058.99 416.415   1
  -7  -3   8 1903.81 450.691   1
  -7  -3   9 307.207 361.280   1
  -7  -3  10 1764.19 425.984   1
  -7  -3  11 1098.88 362.033   1
  -7  -2  -6 246.019 765.797   1
  -7  -2  -5 541.828 765.309   1
  -7  -2  -4 521.514 749.052   1
  -7  -2  -3 1667.90 754.419   1
  -7  -2  -2 495.947 679.244   1
  -7  -2  -1 2065.59 668.736   1
  -7  -2   0 613.934 556.264   1
  -7  -2   1 1649.55 592.566   1
  -7  -2   2 62.9229 504.647   1
  -7  -2   3 3201.15 574.336   1
  -7  -2   4 565.245 434.868   1
  -7  -2   5 3915.04 573.190   1
  -7  -2   6 502.045 424.313   1
  -7  -2   7 1916.78 449.427   1
  -7  -2   8 1486.34 413.996   1
  -7  -2   9 2760.03 464.579   1
  -7  -2  10 457.940 341.096   1
  -7  -1  -7 334.552 875.177   1
  -7  -1  -6 288.803 786.883   1
  -7  -1  -5 329.845 698.409   1
  -7  -1  -4 7904.23 1062.16   1
  -7  -1  -3 771.986 669.108   1
  -7  -1  -2 3175.41 761.354   1
  -7  -1  -1 673.173 594.228   1
  -7  -1   0 3544.85 714.342   1
  -7  -1   1 767.345 517.212   1
  -7  -1   2 6978.97 761.201   1
  -7  -1   3 806.719 482.305   1
  -7  -1   4 4850.56 655.296   1
  -7  -1   5 1003.13 422.728   1
  -7  -1   6 4129.08 563.385   1
  -7  -1   7 691.185 356.268   1
  -7  -1   8 3900.42 503.230   1
  -7  -1   9 507.683 345.464   1
  -7  -1  16 628.922 602.158   1
  -7   0  -7 1844.06 824.428   1
  -7   0  -6 432.161 734.751   1
  -7   0  -5 675.991 782.518   1
  -7   0  -4-50.1308 669.243   1
  -7   0  -3 1497.98 702.578   1
  -7   0  -2 199.850 667.030   1
  -7   0  -1 4315.06 765.204   1
  -7   0   0 314.603 539.899   1
  -7   0   1 1205.20 534.875   1
  -7   0   2 754.714 479.823   1
  -7   0   3 2688.28 566.538   1
  -7   0   4 197.234 397.505   1
  -7   0   5 2752.43 505.196   1
  -7   0   6 210.179 385.278   1
  -7   0   7 5115.15 566.592   1
  -7   0   8 1847.93 385.973   1
  -7   0   9 2121.76 398.134   1
  -7   0  15 386.055 617.830   1
  -7   0  16 283.174 561.507   1
  -7   1  -8 1925.49 952.598   1
  -7   1  -7-279.355 748.896   1
  -7   1  -6 525.409 740.185   1
  -7   1  -5 4.18654 731.234   1
  -7   1  -4 3148.50 782.519   1
  -7   1  -3 176.963 663.479   1
  -7   1  -2 6279.27 876.481   1
  -7   1  -1-11.4065 602.188   1
  -7   1   0 6357.34 828.749   1
  -7   1   1 1259.23 582.362   1
  -7   1   2 3158.97 632.487   1
  -7   1   3 583.847 460.023   1
  -7   1   4 7377.73 721.020   1
  -7   1   5 910.859 413.848   1
  -7   1   6 7216.59 647.296   1
  -7   1   7 611.116 370.216   1
  -7   1   8 1734.56 399.248   1
  -7   1  13 372.422 503.986   1
  -7   1  14 1056.70 563.421   1
  -7   1  15 268.689 556.845   1
  -7   1  16 504.782 593.065   1
  -7   2  -9 911.947 873.379   1
  -7   2  -8 163.411 845.469   1
  -7   2  -7 1839.11 817.117   1
  -7   2  -6-207.346 812.854   1
  -7   2  -5 584.258 677.902   1
  -7   2  -4 513.086 638.850   1
  -7   2  -3 4283.45 877.537   1
  -7   2  -2 643.815 628.092   1
  -7   2  -1 3113.54 726.137   1
  -7   2   0 316.689 528.421   1
  -7   2   1 4836.96 742.521   1
  -7   2   2 699.408 470.516   1
  -7   2   3 6295.05 708.064   1
  -7   2   4 1342.68 469.470   1
  -7   2   5 4225.27 583.021   1
  -7   2   6 499.133 391.981   1
  -7   2   7 5339.92 546.403   1
  -7   2  12 342.959 475.278   1
  -7   2  13 1963.12 599.306   1
  -7   2  14 562.835 545.480   1
  -7   2  15 1440.22 581.440   1
  -7   2  16 268.842 589.064   1
  -7   3  -9 677.067 840.633   1
  -7   3  -8 2990.11 934.920   1
  -7   3  -7-340.212 807.760   1
  -7   3  -6 2523.78 839.844   1
  -7   3  -5-358.701 659.982   1
  -7   3  -4 4651.36 872.376   1
  -7   3  -3 164.899 272.894   1
  -7   3  -2 3775.01 426.543   1
  -7   3  -1 306.117 279.292   1
  -7   3   0 8183.22 510.317   1
  -7   3   1 324.350 274.522   1
  -7   3   2 2846.26 358.692   1
  -7   3   3 318.718 256.524   1
  -7   3   4 5079.90 406.586   1
  -7   3   5 1571.46 295.040   1
  -7   3   6 4630.30 382.124   1
  -7   3   7 59.5851 338.832   1
  -7   3   8 3459.24 471.420   1
  -7   3   9 638.450 335.374   1
  -7   3  11 430.074 443.744   1
  -7   3  12 1281.63 525.206   1
  -7   3  13 372.416 488.573   1
  -7   3  14 860.687 541.073   1
  -7   3  15 373.278 589.432   1
  -7   3  16 461.809 579.726   1
  -7   4  -6 262.530 307.131   1
  -7   4  -5 675.165 287.378   1
  -7   4  -4 271.983 307.679   1
  -7   4  -3 3311.86 393.828   1
  -7   4  -2 333.696 292.339   1
  -7   4  -1 4568.09 425.673   1
  -7   4   0 121.112 279.911   1
  -7   4   1 5811.44 437.260   1
  -7   4   2 774.838 277.498   1
  -7   4   3 4801.13 400.862   1
  -7   4   4 196.257 231.348   1
  -7   4   5 4017.73 495.659   1
  -7   4   6 675.130 337.848   1
  -7   4   7 7679.50 621.615   1
  -7   4   8 527.875 361.922   1
  -7   4   9 3238.68 472.066   1
  -7   4  10 514.452 352.187   1
  -7   4  11 2749.18 364.900   1
  -7   4  12 389.881 284.509   1
  -7   4  13 949.362 488.465   1
  -7   4  14 232.065 546.110   1
  -7   4  15 797.558 573.706   1
  -7   4  16 51.9533 565.831   1
  -7   5  -8 2486.51 424.793   1
  -7   5  -7 20.5271 317.665   1
  -7   5  -6 3873.45 497.265   1
  -7   5  -5 123.579 343.418   1
  -7   5  -4 1444.49 381.953   1
  -7   5  -3 157.412 307.310   1
  -7   5  -2 6450.01 568.450   1
  -7   5  -1 264.217 331.870   1
  -7   5   0 5000.58 513.387   1
  -7   5   1 213.485 324.118   1
  -7   5   2 2646.27 423.507   1
  -7   5   3 889.464 361.399   1
  -7   5   4 4040.83 481.706   1
  -7   5   5 711.357 364.465   1
  -7   5   6 3477.84 483.859   1
  -7   5   7 201.224 314.690   1
  -7   5   8 1941.79 406.205   1
  -7   5   9 373.890 328.746   1
  -7   5  10 1959.71 322.000   1
  -7   5  11 518.801 276.216   1
  -7   5  12 1023.46 305.776   1
  -7   5  13 562.502 314.306   1
  -7   5  14 1248.43 303.982   1
  -7   5  15 526.141 600.765   1
  -7   6  -9 1170.55 374.689   1
  -7   6  -8 198.641 350.211   1
  -7   6  -7 2105.41 401.365   1
  -7   6  -6 53.3127 316.819   1
  -7   6  -5 1435.83 392.153   1
  -7   6  -4 133.909 348.734   1
  -7   6  -3 5972.72 554.310   1
  -7   6  -2 238.586 321.894   1
  -7   6  -1 3693.55 477.994   1
  -7   6   0 210.961 316.286   1
  -7   6   1 9162.71 649.379   1
  -7   6   2 717.373 341.291   1
  -7   6   3 8198.72 632.847   1
  -7   6   4 126.183 326.975   1
  -7   6   5 6101.26 582.674   1
  -7   6   6 699.856 352.600   1
  -7   6   7 5011.73 542.631   1
  -7   6   8 173.545 344.368   1
  -7   6   9 5379.97 542.447   1
  -7   6  10 621.387 280.093   1
  -7   6  11 1679.32 315.600   1
  -7   6  12 345.608 283.067   1
  -7   6  13 1562.15 321.386   1
  -7   6  14 247.808 282.134   1
  -7   6  15 782.633 607.093   1
  -7   7  -9-144.645 351.978   1
  -7   7  -8 1894.33 432.147   1
  -7   7  -7 210.706 339.580   1
  -7   7  -6 4065.10 513.409   1
  -7   7  -5 347.425 310.885   1
  -7   7  -4 2568.74 440.729   1
  -7   7  -3 307.476 357.232   1
  -7   7  -2 2619.22 432.719   1
  -7   7  -1 734.219 329.040   1
  -7   7   0 3559.61 468.785   1
  -7   7   1 62.3400 336.310   1
  -7   7   2 2175.13 427.853   1
  -7   7   3 256.344 343.576   1
  -7   7   4 1873.66 400.654   1
  -7   7   5 619.088 369.008   1
  -7   7   6 2167.07 244.303   1
  -7   7   7 466.191 200.472   1
  -7   7   8 3115.83 467.927   1
  -7   7   9 473.890 260.075   1
  -7   7  10 1536.78 305.269   1
  -7   7  11 586.947 284.543   1
  -7   7  12 522.267 278.922   1
  -7   7  13 261.765 273.867   1
  -7   7  14 731.875 587.823   1
  -7   8  -9 1696.94 406.159   1
  -7   8  -8 407.177 332.644   1
  -7   8  -7 1820.16 429.068   1
  -7   8  -6 157.467 351.871   1
  -7   8  -5 2577.93 451.183   1
  -7   8  -4 5.41611 318.381   1
  -7   8  -3 2100.90 444.523   1
  -7   8  -2 322.489 326.684   1
  -7   8  -1 6426.68 578.134   1
  -7   8   0 110.998 315.604   1
  -7   8   1 4477.23 528.224   1
  -7   8   2 133.999 343.099   1
  -7   8   3 5099.05 539.061   1
  -7   8   4 189.801 328.861   1
  -7   8   5 7714.81 633.074   1
  -7   8   6 292.064 200.288   1
  -7   8   7 3474.53 296.851   1
  -7   8   8 66.8861 217.879   1
  -7   8   9 2159.15 237.961   1
  -7   8  10 75.9230 257.842   1
  -7   8  11 3615.15 397.746   1
  -7   8  12 235.060 292.944   1
  -7   8  13 414.004 310.503   1
  -7   9  -9 433.137 365.984   1
  -7   9  -8 1528.80 420.121   1
  -7   9  -7 175.752 343.662   1
  -7   9  -6 2431.38 471.480   1
  -7   9  -5 203.716 377.413   1
  -7   9  -4 1541.88 432.349   1
  -7   9  -3 68.2302 361.073   1
  -7   9  -2 4807.19 550.054   1
  -7   9  -1 79.7191 338.316   1
  -7   9   0 3027.95 469.259   1
  -7   9   1 57.3880 344.114   1
  -7   9   2 3729.74 498.223   1
  -7   9   3 566.492 372.506   1
  -7   9   4 2548.77 473.565   1
  -7   9   5-6.55638 371.320   1
  -7   9   6 2578.21 291.085   1
  -7   9   7 431.153 225.495   1
  -7   9   8 1475.80 258.182   1
  -7   9   9 309.406 198.758   1
  -7   9  10 1506.10 238.448   1
  -7   9  11 488.807 289.684   1
  -7   9  12 1015.54 335.167   1
  -7  10  -9 1411.67 458.424   1
  -7  10  -8 428.674 397.217   1
  -7  10  -7 2049.72 482.853   1
  -7  10  -6 41.8795 331.618   1
  -7  10  -5 3738.81 531.681   1
  -7  10  -4-87.4629 327.811   1
  -7  10  -3 3139.10 498.360   1
  -7  10  -2 288.483 362.490   1
  -7  10  -1 3676.48 535.460   1
  -7  10   0 831.773 393.527   1
  -7  10   1 4895.88 565.604   1
  -7  10   2 22.4360 362.052   1
  -7  10   3 1969.08 459.223   1
  -7  10   4 384.789 387.177   1
  -7  10   5 4270.16 566.025   1
  -7  10   6 562.254 252.378   1
  -7  10   7 2572.27 312.795   1
  -7  10   8 184.228 206.758   1
  -7  10   9 1035.34 233.933   1
  -7  10  10 206.767 218.321   1
  -7  10  11 1117.88 248.480   1
  -7  11  -8 1700.79 492.952   1
  -7  11  -7-262.187 360.002   1
  -7  11  -6 2079.00 466.524   1
  -7  11  -5 205.492 387.424   1
  -7  11  -4 2923.40 488.855   1
  -7  11  -3-214.455 386.380   1
  -7  11  -2 1358.07 433.209   1
  -7  11  -1 184.170 374.012   1
  -7  11   0 4027.00 554.169   1
  -7  11   1 109.333 384.062   1
  -7  11   2 3361.84 545.425   1
  -7  11   3 267.574 376.005   1
  -7  11   4 989.648 433.511   1
  -7  11   5 333.675 380.004   1
  -7  11   6 2039.43 303.118   1
  -7  11   7 433.839 259.588   1
  -7  11   8 2296.71 326.052   1
  -7  11   9 82.0686 264.088   1
  -7  12  -6 189.936 384.143   1
  -7  12  -5 3420.54 547.274   1
  -7  12  -4 277.131 413.967   1
  -7  12  -3 2290.66 482.564   1
  -7  12  -2 340.145 400.856   1
  -7  12  -1 3642.84 540.458   1
  -7  12   0-166.667 379.741   1
  -7  12   1 3604.48 561.094   1
  -7  12   2 205.113 416.953   1
  -7  12   3 3125.63 557.233   1
  -7  12   4 76.6811 389.143   1
  -7  12   5 2178.18 504.310   1
  -7  12   6 43.6736 254.670   1
  -7  12   7 2501.84 347.511   1
  -7  13  -4 729.920 449.486   1
  -7  13  -3-148.286 428.361   1
  -7  13  -2 1630.43 524.016   1
  -7  13  -1 200.226 403.471   1
  -7  13   0 669.142 424.884   1
  -7  13   1 446.342 414.956   1
  -7  13   2 2220.97 536.147   1
  -7  13   3-45.0936 432.080   1
  -7  13   4 1059.55 481.188   1
  -7  13   5 188.373 272.849   1
  -6  -9   4 2542.10 649.894   1
  -6  -9   5 499.414 519.963   1
  -6  -9   6 1495.11 531.195   1
  -6  -9   7 113.429 471.671   1
  -6  -9   8 1387.51 332.664   1
  -6  -9   9 255.755 303.309   1
  -6  -9  10 742.000 377.736   1
  -6  -8   0-171.108 572.659   1
  -6  -8   1 887.317 577.429   1
  -6  -8   2 183.686 526.793   1
  -6  -8   3 2609.51 627.939   1
  -6  -8   4-8.12718 513.344   1
  -6  -8   5 614.681 483.221   1
  -6  -8   6 130.945 273.739   1
  -6  -8   7 644.604 258.247   1
  -6  -8   8 461.127 286.958   1
  -6  -8   9 995.313 296.100   1
  -6  -8  10 106.159 288.377   1
  -6  -8  11 1171.62 318.047   1
  -6  -8  12 296.904 282.636   1
  -6  -8  13 992.164 306.108   1
  -6  -7  -2 1849.69 676.699   1
  -6  -7  -1 721.733 628.477   1
  -6  -7   0 3004.05 711.455   1
  -6  -7   1 127.162 492.894   1
  -6  -7   2 2069.16 609.600   1
  -6  -7   3 405.793 479.399   1
  -6  -7   4 1511.15 505.785   1
  -6  -7   5 409.239 246.037   1
  -6  -7   6 2997.29 330.401   1
  -6  -7   7-47.7508 242.594   1
  -6  -7   8 2458.89 323.657   1
  -6  -7   9 446.654 252.938   1
  -6  -7  10 841.848 276.717   1
  -6  -7  11 554.446 281.138   1
  -6  -7  12 1394.49 296.938   1
  -6  -7  13 256.332 292.297   1
  -6  -7  14 1410.12 311.329   1
  -6  -6  -4-196.058 684.364   1
  -6  -6  -3 1582.44 701.242   1
  -6  -6  -2 203.515 560.766   1
  -6  -6  -1 1056.70 523.561   1
  -6  -6   0 151.651 555.535   1
  -6  -6   1 1908.08 558.961   1
  -6  -6   2-59.2704 471.210   1
  -6  -6   3 715.319 444.912   1
  -6  -6   4 264.267 220.970   1
  -6  -6   5 2258.49 278.794   1
  -6  -6   6 703.393 232.176   1
  -6  -6   7 1160.19 253.927   1
  -6  -6   8 45.0876 230.629   1
  -6  -6   9 876.835 248.873   1
  -6  -6  10 455.258 227.581   1
  -6  -6  11 1681.26 298.426   1
  -6  -6  12 7.38721 245.800   1
  -6  -6  13 1739.72 285.701   1
  -6  -6  14 38.9646 356.385   1
  -6  -5  -5 524.179 695.742   1
  -6  -5  -4 1225.39 672.866   1
  -6  -5  -3 592.462 590.494   1
  -6  -5  -2 2901.10 701.803   1
  -6  -5  -1 1209.49 545.077   1
  -6  -5   0 1917.65 520.929   1
  -6  -5   1 81.6809 455.691   1
  -6  -5   2 3742.51 599.880   1
  -6  -5   3 256.974 418.513   1
  -6  -5   4 3720.82 293.855   1
  -6  -5   5 365.685 201.924   1
  -6  -5   6 890.851 218.167   1
  -6  -5   7-14.4349 203.152   1
  -6  -5   8 2965.15 295.715   1
  -6  -5   9 923.502 227.228   1
  -6  -5  10 2109.68 283.920   1
  -6  -5  11 712.007 232.135   1
  -6  -5  12 2317.00 299.184   1
  -6  -5  13 366.475 329.735   1
  -6  -4  -7 863.802 771.596   1
  -6  -4  -6-33.5979 756.505   1
  -6  -4  -5 2219.48 795.751   1
  -6  -4  -4 18.0202 585.293   1
  -6  -4  -3 3740.16 796.072   1
  -6  -4  -2 232.625 538.019   1
  -6  -4  -1 2041.44 577.302   1
  -6  -4   0 608.914 436.125   1
  -6  -4   1 2210.76 523.595   1
  -6  -4   2 194.503 433.840   1
  -6  -4   3 3031.94 256.349   1
  -6  -4   4-35.0123 167.904   1
  -6  -4   5 1978.33 233.310   1
  -6  -4   6 792.782 202.498   1
  -6  -4   7 1318.80 222.144   1
  -6  -4   8 55.4863 195.069   1
  -6  -4   9 2492.55 273.293   1
  -6  -4  10 358.615 205.848   1
  -6  -4  11 1182.59 338.612   1
  -6  -4  12 581.332 314.661   1
  -6  -4  13 1972.10 355.386   1
  -6  -4  17 581.709 617.701   1
  -6  -3  -8 1693.67 867.652   1
  -6  -3  -7 382.919 786.043   1
  -6  -3  -6 1691.41 792.677   1
  -6  -3  -5 251.183 644.067   1
  -6  -3  -4 644.644 594.587   1
  -6  -3  -3 588.072 571.517   1
  -6  -3  -2 4287.87 701.477   1
  -6  -3  -1 861.146 511.506   1
  -6  -3   0 1677.34 492.060   1
  -6  -3   1 388.809 402.957   1
  -6  -3   2 1937.49 483.719   1
  -6  -3   3 162.210 149.921   1
  -6  -3   4 1272.36 181.570   1
  -6  -3   5 508.354 162.868   1
  -6  -3   6 4564.16 283.630   1
  -6  -3   7 385.103 183.943   1
  -6  -3   8 3039.67 266.259   1
  -6  -3   9 502.742 190.057   1
  -6  -3  10 2479.20 383.843   1
  -6  -3  11 709.130 284.534   1
  -6  -3  12 2579.76 369.427   1
  -6  -3  15 164.602 551.409   1
  -6  -3  16 870.181 571.077   1
  -6  -3  17 433.540 583.685   1
  -6  -2  -9 941.343 809.577   1
  -6  -2  -8 351.929 798.805   1
  -6  -2  -7 2252.90 840.315   1
  -6  -2  -6 414.170 699.824   1
  -6  -2  -5 2300.81 743.411   1
  -6  -2  -4 612.863 562.812   1
  -6  -2  -3 2087.85 636.105   1
  -6  -2  -2 724.478 523.874   1
  -6  -2  -1 3954.87 652.486   1
  -6  -2   0 2331.35 539.202   1
  -6  -2   1 1394.74 463.920   1
  -6  -2   2-42.9383 361.033   1
  -6  -2   3 2598.60 184.727   1
  -6  -2   4 1490.89 173.918   1
  -6  -2   5 5084.55 257.165   1
  -6  -2   6 265.808 162.423   1
  -6  -2   7 1315.35 201.411   1
  -6  -2   8 671.985 181.476   1
  -6  -2   9 1220.85 309.487   1
  -6  -2  10 1025.08 293.659   1
  -6  -2  11 1762.53 300.253   1
  -6  -2  14 96.0579 491.517   1
  -6  -2  15 588.709 584.667   1
  -6  -2  16 203.256 531.099   1
  -6  -2  17 1041.37 644.123   1
  -6  -2  18-70.2402 573.243   1
  -6  -1 -10 838.795 831.820   1
  -6  -1  -9 931.268 882.214   1
  -6  -1  -8 2582.91 853.471   1
  -6  -1  -7 1147.09 746.823   1
  -6  -1  -6 724.877 676.731   1
  -6  -1  -5 1745.14 716.424   1
  -6  -1  -4 2506.24 697.289   1
  -6  -1  -3 319.591 561.373   1
  -6  -1  -2 3475.01 674.056   1
  -6  -1  -1 279.902 468.145   1
  -6  -1   0 2244.61 538.700   1
  -6  -1   1 1275.27 453.565   1
  -6  -1   2 4089.82 554.504   1
  -6  -1   3 463.529 358.046   1
  -6  -1   4 4695.48 204.030   1
  -6  -1   5 1081.81 148.471   1
  -6  -1   6 2472.61 202.484   1
  -6  -1   7 808.754 172.655   1
  -6  -1   8 2660.32 363.056   1
  -6  -1   9 354.330 249.814   1
  -6  -1  10 5941.25 437.849   1
  -6  -1  11 781.265 251.757   1
  -6  -1  12 2075.40 511.415   1
  -6  -1  13 702.048 490.522   1
  -6  -1  14 1776.44 603.435   1
  -6  -1  15-159.029 548.007   1
  -6  -1  16 1624.46 569.555   1
  -6  -1  17 490.956 571.162   1
  -6  -1  18 635.081 599.951   1
  -6   0 -10 1452.61 860.406   1
  -6   0  -9 1166.95 794.500   1
  -6   0  -8 1165.65 789.641   1
  -6   0  -7 1947.81 760.300   1
  -6   0  -6 1444.11 745.840   1
  -6   0  -5 1408.12 699.373   1
  -6   0  -4 284.952 623.647   1
  -6   0  -3 2977.67 671.633   1
  -6   0  -2 959.462 503.238   1
  -6   0  -1 2827.00 590.207   1
  -6   0   0 219.669 429.190   1
  -6   0   1 706.011 434.836   1
  -6   0   2 1038.41 419.168   1
  -6   0   3 1303.04 396.985   1
  -6   0   4 434.433 87.9363   1
  -6   0   5 2533.90 163.488   1
  -6   0   6 1079.55 157.495   1
  -6   0   7 1327.18 300.543   1
  -6   0   8 654.263 260.150   1
  -6   0   9 1716.97 287.862   1
  -6   0  10 112.833 227.390   1
  -6   0  11 1727.68 496.704   1
  -6   0  12 836.814 461.417   1
  -6   0  13 1174.61 480.972   1
  -6   0  14 213.567 482.403   1
  -6   0  15 2036.25 592.264   1
  -6   0  16 775.492 585.339   1
  -6   0  17 1544.71 616.581   1
  -6   0  18-81.2008 637.975   1
  -6   1 -11 483.218 441.068   1
  -6   1 -10 1653.30 906.440   1
  -6   1  -9 1537.80 867.458   1
  -6   1  -8 3004.38 885.487   1
  -6   1  -7 1014.99 723.363   1
  -6   1  -6 4687.36 862.132   1
  -6   1  -5 703.053 598.843   1
  -6   1  -4 1859.16 623.405   1
  -6   1  -3 1733.59 598.714   1
  -6   1  -2 2793.45 592.687   1
  -6   1  -1 270.614 497.012   1
  -6   1   0 9096.88 819.177   1
  -6   1   1 1558.91 471.668   1
  -6   1   2 5371.96 613.082   1
  -6   1   3 211.123 342.630   1
  -6   1   4 2993.02 473.363   1
  -6   1   5 654.407 111.731   1
  -6   1   6 9992.35 615.898   1
  -6   1   7 483.487 275.569   1
  -6   1   8 2007.44 338.955   1
  -6   1   9 356.048 245.801   1
  -6   1  10 2062.40 488.511   1
  -6   1  11 1449.51 497.824   1
  -6   1  12 2682.52 522.543   1
  -6   1  13 947.207 465.448   1
  -6   1  14 1686.61 536.289   1
  -6   1  15 578.390 538.628   1
  -6   1  16 1243.47 582.442   1
  -6   1  17 945.471 613.732   1
  -6   1  18 1017.17 645.794   1
  -6   2 -11 2570.12 985.142   1
  -6   2 -10 770.057 792.575   1
  -6   2  -9 547.713 815.990   1
  -6   2  -8 260.059 688.567   1
  -6   2  -7 4194.83 893.473   1
  -6   2  -6 1277.00 699.561   1
  -6   2  -5 2123.64 713.217   1
  -6   2  -4 899.891 587.687   1
  -6   2  -3 1552.88 602.514   1
  -6   2  -2 1606.91 309.295   1
  -6   2  -1 2950.07 337.785   1
  -6   2   0 1919.66 301.345   1
  -6   2   1 1230.78 263.551   1
  -6   2   2 673.325 238.644   1
  -6   2   3 920.178 237.577   1
  -6   2   4 1547.65 262.479   1
  -6   2   5 602.041 68.0377   1
  -6   2   6 397.017 211.570   1
  -6   2   7 2732.58 282.107   1
  -6   2   8 1052.69 220.884   1
  -6   2   9 832.377 462.871   1
  -6   2  10 244.600 407.500   1
  -6   2  11 2198.23 499.396   1
  -6   2  12 487.883 488.458   1
  -6   2  13 1582.23 549.257   1
  -6   2  14 308.132 460.368   1
  -6   2  15 1335.24 609.426   1
  -6   2  16 245.920 557.465   1
  -6   2  17 2100.21 686.418   1
  -6   2  18-209.022 654.488   1
  -6   3 -12 505.421 478.178   1
  -6   3  -9 2047.57 803.838   1
  -6   3  -8 1454.91 762.134   1
  -6   3  -7 712.729 635.959   1
  -6   3  -6 963.032 276.266   1
  -6   3  -5 1000.36 290.810   1
  -6   3  -4 7264.10 458.973   1
  -6   3  -3 949.751 277.451   1
  -6   3  -2 2061.02 310.529   1
  -6   3  -1 803.614 248.610   1
  -6   3   0 4959.12 378.002   1
  -6   3   1 670.066 237.394   1
  -6   3   2 5692.52 377.851   1
  -6   3   3 1159.70 243.230   1
  -6   3   4 5434.64 360.039   1
  -6   3   5 737.624 112.804   1
  -6   3   6 3640.03 168.864   1
  -6   3   7 1219.22 125.133   1
  -6   3   8 3516.98 206.550   1
  -6   3   9 519.743 239.311   1
  -6   3  10 3761.66 344.843   1
  -6   3  11 1534.43 293.376   1
  -6   3  12 1630.01 492.831   1
  -6   3  13 1808.53 545.243   1
  -6   3  14 1324.89 521.367   1
  -6   3  15 152.034 564.373   1
  -6   3  16 925.378 585.753   1
  -6   3  17 292.267 651.054   1
  -6   4 -12 850.423 501.967   1
  -6   4  -9 1597.18 356.594   1
  -6   4  -8 1473.45 327.607   1
  -6   4  -7 1648.24 348.443   1
  -6   4  -6 1403.30 341.926   1
  -6   4  -5 1457.45 296.783   1
  -6   4  -4 1016.11 285.446   1
  -6   4  -3 2805.43 319.357   1
  -6   4  -2 2676.57 325.226   1
  -6   4  -1 934.978 254.009   1
  -6   4   0 241.143 241.263   1
  -6   4   1 743.385 239.037   1
  -6   4   2 2413.66 286.106   1
  -6   4   3 1423.12 248.161   1
  -6   4   4 914.674 315.553   1
  -6   4   5 585.333 297.164   1
  -6   4   6 1002.35 159.953   1
  -6   4   7 2456.90 193.502   1
  -6   4   8 436.638 141.007   1
  -6   4   9 1994.09 187.815   1
  -6   4  10 153.960 150.606   1
  -6   4  11 2226.24 213.134   1
  -6   4  12 597.290 260.493   1
  -6   4  13 1909.89 299.252   1
  -6   4  14 963.285 544.546   1
  -6   4  15 1788.69 610.624   1
  -6   4  16-5.93637 585.992   1
  -6   4  17 853.395 600.142   1
  -6   5 -12 559.913 504.519   1
  -6   5  -9 1436.09 332.916   1
  -6   5  -8 1252.73 344.769   1
  -6   5  -7 481.388 294.840   1
  -6   5  -6 6768.01 532.767   1
  -6   5  -5 924.099 298.350   1
  -6   5  -4 2190.36 374.582   1
  -6   5  -3 609.666 298.963   1
  -6   5  -2 2293.73 372.538   1
  -6   5  -1 1738.37 361.986   1
  -6   5   0 8403.76 569.621   1
  -6   5   1 1193.40 323.329   1
  -6   5   2 1919.94 348.684   1
  -6   5   3 750.371 289.260   1
  -6   5   4 6000.13 504.237   1
  -6   5   5 2426.11 379.518   1
  -6   5   6 4496.25 251.175   1
  -6   5   7 1540.36 176.797   1
  -6   5   8 2252.39 195.173   1
  -6   5   9 1449.21 181.942   1
  -6   5  10 2016.16 203.241   1
  -6   5  11 951.500 189.016   1
  -6   5  12 3256.20 255.638   1
  -6   5  13 1111.64 273.333   1
  -6   5  14 1953.86 314.615   1
  -6   5  15 1091.36 584.714   1
  -6   5  16 977.373 629.963   1
  -6   6 -12 585.735 484.638   1
  -6   6 -10 664.199 318.397   1
  -6   6  -9 1045.04 329.422   1
  -6   6  -8 2730.75 416.058   1
  -6   6  -7 1325.24 349.462   1
  -6   6  -6 1123.11 343.505   1
  -6   6  -5 45.5118 284.140   1
  -6   6  -4 2118.90 363.785   1
  -6   6  -3 1761.59 352.439   1
  -6   6  -2 1504.49 326.241   1
  -6   6  -1 938.930 316.199   1
  -6   6   0 2259.09 365.350   1
  -6   6   1 1746.27 336.048   1
  -6   6   2 521.884 268.985   1
  -6   6   3 1560.78 334.529   1
  -6   6   4 958.055 308.818   1
  -6   6   5 1447.90 341.590   1
  -6   6   6 267.243 166.660   1
  -6   6   7 2616.37 209.899   1
  -6   6   8 631.710 162.196   1
  -6   6   9 2092.47 213.806   1
  -6   6  10 309.454 165.680   1
  -6   6  11 2315.41 226.503   1
  -6   6  12 57.1758 185.050   1
  -6   6  13 1974.45 237.733   1
  -6   6  14 535.071 582.602   1
  -6   6  15 897.482 644.661   1
  -6   6  16 315.851 648.009   1
  -6   7 -12 863.411 526.081   1
  -6   7 -10 2947.64 416.957   1
  -6   7  -9 667.501 310.423   1
  -6   7  -8 988.375 318.811   1
  -6   7  -7 1788.00 355.216   1
  -6   7  -6 2297.44 392.131   1
  -6   7  -5 1715.57 339.618   1
  -6   7  -4 6798.22 536.637   1
  -6   7  -3 490.440 279.822   1
  -6   7  -2 2941.60 392.619   1
  -6   7  -1 1955.97 377.588   1
  -6   7   0 1007.34 293.779   1
  -6   7   1 34.8380 284.170   1
  -6   7   2 3182.85 411.453   1
  -6   7   3 1048.44 330.621   1
  -6   7   4 4008.78 456.525   1
  -6   7   5 2359.80 400.114   1
  -6   7   6 1447.89 204.719   1
  -6   7   7 957.542 170.389   1
  -6   7   8 2293.14 213.915   1
  -6   7   9 1049.89 183.998   1
  -6   7  10 1132.88 199.294   1
  -6   7  11 1058.28 210.160   1
  -6   7  12 1576.50 232.107   1
  -6   7  13 624.482 215.791   1
  -6   7  14 1229.13 342.955   1
  -6   7  15 295.280 585.198   1
  -6   8 -12 756.859 533.871   1
  -6   8 -10 955.980 349.680   1
  -6   8  -9 1997.42 394.506   1
  -6   8  -8 1241.51 341.840   1
  -6   8  -7 462.510 333.131   1
  -6   8  -6 1070.41 341.837   1
  -6   8  -5 1408.18 349.921   1
  -6   8  -4 1556.90 356.786   1
  -6   8  -3 1255.25 360.775   1
  -6   8  -2 1009.65 326.387   1
  -6   8  -1 481.714 312.062   1
  -6   8   0 1139.72 332.825   1
  -6   8   1 4196.69 461.308   1
  -6   8   2 3299.18 432.234   1
  -6   8   3 1096.42 349.550   1
  -6   8   4 1483.95 364.946   1
  -6   8   5 3232.12 446.550   1
  -6   8   6 1693.31 206.054   1
  -6   8   7 2545.62 222.950   1
  -6   8   8 851.032 185.415   1
  -6   8   9 1675.95 217.088   1
  -6   8  10 775.562 196.764   1
  -6   8  11 2064.88 241.655   1
  -6   8  12 819.019 218.068   1
  -6   8  13 1517.19 232.325   1
  -6   8  14 550.157 290.724   1
  -6   9 -10 1077.48 386.596   1
  -6   9  -9 625.600 347.329   1
  -6   9  -8 1696.18 385.774   1
  -6   9  -7 1538.10 366.151   1
  -6   9  -6 2421.83 427.580   1
  -6   9  -5 781.451 342.525   1
  -6   9  -4 552.918 342.654   1
  -6   9  -3 1058.71 343.779   1
  -6   9  -2 2790.20 415.753   1
  -6   9  -1 1121.41 341.776   1
  -6   9   0 1863.48 396.457   1
  -6   9   1 1142.40 348.058   1
  -6   9   2 837.436 332.578   1
  -6   9   3 499.318 319.297   1
  -6   9   4 1390.15 383.433   1
  -6   9   5 948.335 343.267   1
  -6   9   6 1250.65 203.560   1
  -6   9   7 1009.01 198.221   1
  -6   9   8 1512.43 225.145   1
  -6   9   9 728.452 194.482   1
  -6   9  10 892.280 216.142   1
  -6   9  11 427.550 199.880   1
  -6   9  12 1530.77 249.426   1
  -6   9  13 577.691 285.344   1
  -6  10 -11 125.718 354.326   1
  -6  10 -10 932.077 378.908   1
  -6  10  -9 559.866 352.216   1
  -6  10  -8 1271.61 383.426   1
  -6  10  -7 336.663 337.748   1
  -6  10  -6 996.552 351.639   1
  -6  10  -5 502.039 311.074   1
  -6  10  -4 2077.95 407.879   1
  -6  10  -3 648.238 347.076   1
  -6  10  -2 1126.18 346.181   1
  -6  10  -1 897.416 370.893   1
  -6  10   0 1202.46 377.057   1
  -6  10   1 884.397 356.075   1
  -6  10   2 715.887 360.548   1
  -6  10   3 1096.25 377.756   1
  -6  10   4 1607.27 416.533   1
  -6  10   5 1277.16 391.953   1
  -6  10   6 1208.93 203.578   1
  -6  10   7 1483.15 224.749   1
  -6  10   8 958.588 207.350   1
  -6  10   9 2138.20 256.679   1
  -6  10  10 660.018 208.656   1
  -6  10  11 691.364 213.787   1
  -6  10  12 499.929 228.296   1
  -6  11 -10 1111.70 437.569   1
  -6  11  -9 685.723 365.086   1
  -6  11  -8 1060.17 388.123   1
  -6  11  -7 842.588 377.631   1
  -6  11  -6 534.475 338.991   1
  -6  11  -5 1031.67 361.473   1
  -6  11  -4 2686.84 457.807   1
  -6  11  -3 845.655 390.701   1
  -6  11  -2 2413.29 458.429   1
  -6  11  -1 865.009 362.927   1
  -6  11   0 146.432 317.612   1
  -6  11   1 206.849 335.367   1
  -6  11   2 2059.64 418.823   1
  -6  11   3 723.047 375.884   1
  -6  11   4 1360.93 426.002   1
  -6  11   5 710.655 366.026   1
  -6  11   6 898.399 250.826   1
  -6  11   7 755.354 254.496   1
  -6  11   8 1274.97 228.186   1
  -6  11   9 670.910 224.884   1
  -6  11  10 975.455 250.285   1
  -6  11  11 434.498 230.193   1
  -6  12  -9 118.015 367.312   1
  -6  12  -8 688.239 392.066   1
  -6  12  -7 78.8650 381.549   1
  -6  12  -6 1101.81 379.911   1
  -6  12  -5 804.694 401.614   1
  -6  12  -4 952.711 401.928   1
  -6  12  -3 9.87377 329.304   1
  -6  12  -2 1752.00 427.826   1
  -6  12  -1 847.074 380.520   1
  -6  12   0 1395.47 447.674   1
  -6  12   1 979.486 410.375   1
  -6  12   2 752.112 375.337   1
  -6  12   3 983.123 430.488   1
  -6  12   4 1150.81 421.509   1
  -6  12   5 1586.81 426.375   1
  -6  12   6 1468.96 305.531   1
  -6  12   7 577.044 277.076   1
  -6  12   8 703.383 285.991   1
  -6  12   9 1264.40 296.115   1
  -6  13  -8 713.289 404.322   1
  -6  13  -7 743.031 356.936   1
  -6  13  -6 323.596 357.789   1
  -6  13  -5 315.351 393.418   1
  -6  13  -4 90.0722 343.790   1
  -6  13  -3 1305.11 425.288   1
  -6  13  -2 548.229 389.020   1
  -6  13  -1 569.984 385.938   1
  -6  13   0 1423.40 434.968   1
  -6  13   1 670.207 381.691   1
  -6  13   2 56.0787 413.334   1
  -6  13   3 654.095 418.744   1
  -6  13   4 849.093 433.710   1
  -6  13   5 876.598 310.470   1
  -6  13   6 1411.78 334.786   1
  -6  13   7 898.706 303.295   1
  -6  14  -6 1287.83 472.590   1
  -6  14  -5 790.765 404.310   1
  -6  14  -4 1581.74 473.176   1
  -6  14  -3 534.314 427.903   1
  -6  14  -2 1114.17 464.711   1
  -6  14  -1 748.070 464.139   1
  -6  14   0 992.100 463.813   1
  -6  14   1 359.108 426.610   1
  -6  14   2 392.798 426.500   1
  -6  14   3 1383.47 487.218   1
  -6  14   4 1074.57 484.718   1
  -5 -10   1 1614.51 366.085   1
  -5 -10   2 223.152 295.534   1
  -5 -10   3 191.219 304.047   1
  -5 -10   4 685.407 310.669   1
  -5 -10   5 861.491 301.333   1
  -5 -10   6 626.537 301.256   1
  -5 -10   7 1318.30 332.089   1
  -5 -10   8 487.437 304.952   1
  -5 -10   9 524.346 295.194   1
  -5 -10  10 531.203 311.365   1
  -5 -10  11 630.641 312.812   1
  -5 -10  12 534.203 315.413   1
  -5  -9  -2 274.999 298.653   1
  -5  -9  -1 1347.07 325.329   1
  -5  -9   0 411.188 294.954   1
  -5  -9   1 409.903 298.080   1
  -5  -9   2 355.022 259.351   1
  -5  -9   3 14.8459 269.909   1
  -5  -9   4 679.925 269.716   1
  -5  -9   5 1700.36 315.114   1
  -5  -9   6 470.429 271.457   1
  -5  -9   7 120.633 271.309   1
  -5  -9   8 501.957 266.554   1
  -5  -9   9 248.229 271.939   1
  -5  -9  10 314.649 279.959   1
  -5  -9  11 293.203 271.840   1
  -5  -9  12 945.448 314.569   1
   5 -14   8 1244.22 596.131  -2
  -5  -9  13 1244.22 596.131   1
  -5  -9  13 784.315 437.067   1
  -5  -9  14 1110.49 333.907   1
  -5  -8  -4 1127.23 333.816   1
  -5  -8  -3 1266.88 316.136   1
  -5  -8  -2 1036.92 299.957   1
  -5  -8  -1 767.782 285.794   1
  -5  -8   0 710.572 275.168   1
  -5  -8   1 1287.96 301.129   1
  -5  -8   2 1751.79 300.772   1
  -5  -8   3 1878.67 295.161   1
  -5  -8   4 486.329 243.074   1
  -5  -8   5 992.365 264.039   1
  -5  -8   6 756.740 250.896   1
  -5  -8   7 346.256 237.080   1
  -5  -8   8 544.686 256.901   1
  -5  -8   9 1201.51 303.761   1
  -5  -8  10 220.073 270.020   1
  -5  -8  11 606.612 276.413   1
  -5  -8  12 995.683 286.739   1
  -5  -8  13 709.331 263.464   1
   5 -13   9 1180.20 601.236  -2
  -5  -8  14 1180.20 601.236   1
  -5  -8  14 158.304 371.511   1
  -5  -8  15 745.477 302.020   1
  -5  -7  -6 371.054 257.260   1
  -5  -7  -5 1994.88 369.152   1
  -5  -7  -4 427.493 267.382   1
  -5  -7  -3 1362.05 311.398   1
  -5  -7  -2 1407.36 303.150   1
  -5  -7  -1 1164.26 283.312   1
  -5  -7   0 159.746 227.748   1
  -5  -7   1 1017.80 248.061   1
  -5  -7   2 694.759 236.941   1
  -5  -7   3 1326.26 248.733   1
  -5  -7   4 722.787 237.734   1
  -5  -7   5 740.735 231.099   1
  -5  -7   6 304.003 227.493   1
  -5  -7   7 684.788 231.260   1
  -5  -7   8 734.457 244.196   1
  -5  -7   9 550.793 238.338   1
  -5  -7  10 563.195 233.763   1
  -5  -7  11 752.932 259.722   1
  -5  -7  12 1550.99 280.990   1
  -5  -7  13 1085.61 265.259   1
  -5  -7  14 1106.80 354.759   1
  -5  -7  15 373.568 339.623   1
  -5  -7  16 774.556 357.279   1
  -5  -6  -7 639.232 697.673   1
  -5  -6  -6 584.410 309.250   1
  -5  -6  -5 543.660 264.462   1
  -5  -6  -4 2317.86 313.930   1
  -5  -6  -3 508.539 244.735   1
  -5  -6  -2 897.630 236.793   1
  -5  -6  -1 1056.84 237.615   1
  -5  -6   0 874.531 227.897   1
  -5  -6   1 1252.52 230.462   1
  -5  -6   2 1542.83 250.753   1
  -5  -6   3 769.234 218.213   1
  -5  -6   4 278.018 207.667   1
  -5  -6   5 467.245 209.989   1
  -5  -6   6 1849.32 251.591   1
  -5  -6   7 1053.11 237.612   1
  -5  -6   8 456.651 223.226   1
  -5  -6   9 1683.36 274.216   1
  -5  -6  10 763.444 225.377   1
  -5  -6  11 751.762 242.519   1
  -5  -6  12 1169.01 335.146   1
  -5  -6  13 652.047 328.647   1
  -5  -6  14 855.753 327.896   1
  -5  -6  15 966.264 357.344   1
  -5  -6  17 874.154 570.922   1
  -5  -5  -8 156.299 370.176   1
  -5  -5  -7 1970.74 275.907   1
  -5  -5  -6 715.467 275.457   1
  -5  -5  -5 1744.84 306.290   1
  -5  -5  -4 427.079 234.880   1
  -5  -5  -3 1834.09 277.001   1
  -5  -5  -2 663.457 222.447   1
  -5  -5  -1 2934.55 275.174   1
  -5  -5   0 970.593 214.491   1
  -5  -5   1 1938.24 235.851   1
  -5  -5   2 152.602 183.522   1
  -5  -5   3 2138.64 238.499   1
  -5  -5   4 832.250 202.988   1
  -5  -5   5 2810.09 264.563   1
  -5  -5   6 3007.68 271.913   1
  -5  -5   7 3258.85 276.623   1
  -5  -5   8 233.084 199.653   1
  -5  -5   9 1002.42 226.628   1
  -5  -5  10 936.757 321.008   1
  -5  -5  11 630.590 272.732   1
  -5  -5  12 784.443 296.002   1
  -5  -5  13 1993.39 350.965   1
  -5  -5  14 631.637 299.482   1
  -5  -5  15 83.3982 246.137   1
  -5  -5  16 426.765 515.142   1
  -5  -5  17-125.256 537.151   1
  -5  -5  18 392.840 556.396   1
  -5  -4  -9 468.764 373.330   1
  -5  -4  -8 1844.65 292.785   1
  -5  -4  -7 1186.55 307.932   1
  -5  -4  -6 2049.55 306.544   1
  -5  -4  -5 957.556 259.070   1
  -5  -4  -4 3305.64 314.329   1
  -5  -4  -3 554.297 216.814   1
  -5  -4  -2 422.028 193.610   1
  -5  -4  -1 1772.98 218.443   1
  -5  -4   0 1836.18 222.127   1
  -5  -4   1 630.600 179.625   1
  -5  -4   2 1996.81 217.811   1
  -5  -4   3 2825.91 238.342   1
  -5  -4   4 762.534 179.565   1
  -5  -4   5 1656.58 209.240   1
  -5  -4   6 354.798 175.404   1
  -5  -4   7 707.966 188.642   1
  -5  -4   8 1342.03 228.239   1
  -5  -4   9 1474.58 316.729   1
  -5  -4  10 1229.73 285.173   1
  -5  -4  11 2139.34 328.229   1
  -5  -4  12 871.875 281.777   1
  -5  -4  13 1350.04 256.297   1
  -5  -4  14 1811.57 279.957   1
  -5  -4  15 1083.32 512.751   1
  -5  -4  16 1037.32 541.658   1
  -5  -4  17 399.213 540.250   1
  -5  -4  18 609.256 532.780   1
  -5  -3 -10 277.008 366.971   1
  -5  -3  -9 1855.48 283.366   1
  -5  -3  -8 321.190 262.475   1
  -5  -3  -7 2346.94 326.650   1
  -5  -3  -6 794.669 256.103   1
  -5  -3  -5 1983.07 281.631   1
  -5  -3  -4 282.114 214.486   1
  -5  -3  -3 4329.35 300.270   1
  -5  -3  -2 299.726 165.210   1
  -5  -3  -1 2683.87 230.959   1
  -5  -3   0 1765.26 195.014   1
  -5  -3   1 1126.65 173.429   1
  -5  -3   2 124.218 136.163   1
  -5  -3   3 5714.09 268.244   1
  -5  -3   4 134.685 141.317   1
  -5  -3   5 315.753 148.956   1
  -5  -3   6 1403.67 190.059   1
  -5  -3   7 2338.75 223.238   1
  -5  -3   8 1176.70 283.642   1
  -5  -3   9 3059.91 347.131   1
  -5  -3  10 261.716 237.465   1
  -5  -3  11 470.510 243.823   1
  -5  -3  12 774.482 214.947   1
  -5  -3  13 781.428 220.156   1
  -5  -3  14 553.688 207.260   1
  -5  -3  15 1157.92 476.041   1
  -5  -3  16 1412.14 566.839   1
  -5  -3  17 540.975 520.908   1
  -5  -3  18 982.905 586.844   1
  -5  -3  19 225.229 592.141   1
  -5  -2 -11 404.317 407.124   1
  -5  -2 -10 2329.85 447.823   1
  -5  -2  -9 232.576 361.522   1
  -5  -2  -8 1612.86 698.250   1
  -5  -2  -7 1002.63 274.764   1
  -5  -2  -6 1378.56 267.891   1
  -5  -2  -5 1851.02 259.738   1
  -5  -2  -4 2707.18 257.973   1
  -5  -2  -3 260.073 162.467   1
  -5  -2  -2 1322.68 192.273   1
  -5  -2  -1 1301.10 172.514   1
  -5  -2   0 1982.61 175.645   1
  -5  -2   1 3027.55 194.787   1
  -5  -2   2 1141.28 147.107   1
  -5  -2   3 476.969 116.949   1
  -5  -2   4 2730.94 197.965   1
  -5  -2   5 1547.67 180.545   1
  -5  -2   6 2638.19 212.984   1
  -5  -2   7 3128.46 333.083   1
  -5  -2   8 710.790 243.920   1
  -5  -2   9 937.459 234.992   1
  -5  -2  10 4591.41 358.301   1
  -5  -2  11 1016.74 205.032   1
  -5  -2  12 1030.06 207.160   1
  -5  -2  13 1209.94 225.618   1
  -5  -2  14 1664.38 552.416   1
  -5  -2  15 749.824 508.203   1
  -5  -2  16 1457.17 563.346   1
  -5  -2  17 1345.47 583.620   1
  -5  -2  18 1133.76 603.273   1
  -5  -2  19 229.813 592.066   1
  -5  -1 -12 243.611 436.722   1
  -5  -1 -11 2471.72 461.791   1
  -5  -1 -10 496.231 370.670   1
  -5  -1  -9 1870.59 777.397   1
  -5  -1  -8 296.736 651.387   1
  -5  -1  -7 2872.81 752.067   1
  -5  -1  -6 1.63270 559.218   1
  -5  -1  -5 1504.28 231.231   1
  -5  -1  -4 907.522 192.111   1
  -5  -1  -3 3450.65 239.882   1
  -5  -1  -2 639.649 150.182   1
  -5  -1  -1 3047.21 194.792   1
  -5  -1   0 781.666 123.789   1
  -5  -1   1 3279.86 131.727   1
  -5  -1   2 606.520 107.994   1
  -5  -1   3 2494.80 158.072   1
  -5  -1   4 90.0974 103.210   1
  -5  -1   5 1590.22 163.171   1
  -5  -1   6 1606.32 275.064   1
  -5  -1   7 2789.10 316.717   1
  -5  -1   8 790.057 218.904   1
  -5  -1   9 873.677 214.752   1
  -5  -1  10 1206.98 196.669   1
  -5  -1  11 1958.47 223.070   1
  -5  -1  12 1187.05 200.315   1
  -5  -1  13 618.032 461.890   1
  -5  -1  14 1511.18 522.167   1
  -5  -1  15 953.637 515.234   1
  -5  -1  16 1156.67 556.123   1
  -5  -1  17 538.176 583.173   1
  -5  -1  18 965.733 599.990   1
  -5  -1  19 977.958 640.886   1
  -5   0 -12 806.082 433.247   1
  -5   0 -11 352.205 393.878   1
  -5   0 -10 3404.08 491.397   1
  -5   0  -9 528.293 665.856   1
  -5   0  -8 961.862 659.420   1
  -5   0  -7 492.414 609.682   1
  -5   0  -6 2663.49 672.666   1
  -5   0  -5 1234.42 567.657   1
  -5   0  -4 3260.67 671.832   1
  -5   0  -3 2678.42 616.246   1
  -5   0  -2 502.493 449.172   1
  -5   0  -1 897.671 440.157   1
  -5   0   0 3408.52 539.712   1
  -5   0   1 2152.52 169.617   1
  -5   0   2 1582.26 73.6251   1
  -5   0   3 2517.30 123.487   1
  -5   0   4 3837.74 143.232   1
  -5   0   5 272.136 236.057   1
  -5   0   6 564.745 239.409   1
  -5   0   7 1790.77 260.936   1
  -5   0   8 3070.57 289.620   1
  -5   0   9 502.649 168.876   1
  -5   0  10 3285.89 233.953   1
  -5   0  11 737.905 161.084   1
  -5   0  12 2862.99 525.454   1
  -5   0  13 2084.51 530.616   1
  -5   0  14 1094.87 519.229   1
  -5   0  15 322.964 480.693   1
  -5   0  16 1276.60 570.071   1
  -5   0  17 995.516 588.027   1
  -5   0  18 1319.69 612.376   1
  -5   0  19 266.025 615.065   1
  -5   1 -13 1536.13 574.028   1
  -5   1 -12 478.120 423.420   1
  -5   1 -11 2848.10 509.278   1
  -5   1 -10 989.669 673.788   1
  -5   1  -9 6068.35 973.437   1
  -5   1  -8 480.897 639.444   1
  -5   1  -7 4184.87 783.087   1
  -5   1  -6-195.752 554.531   1
  -5   1  -5 3635.73 702.951   1
  -5   1  -4 954.504 524.351   1
  -5   1  -3 10524.5 883.820   1
  -5   1  -2-47.4867 482.028   1
  -5   1  -1 921.903 485.689   1
  -5   1   0 1172.43 234.225   1
  -5   1   1 3093.91 478.528   1
  -5   1   2 727.337 366.263   1
  -5   1   3 2900.49 405.937   1
  -5   1   4 551.567 73.9069   1
  -5   1   5 898.886 92.0261   1
  -5   1   6 584.038 95.9604   1
  -5   1   7 2191.03 266.108   1
  -5   1   8 3176.14 234.098   1
  -5   1   9 2192.23 206.114   1
  -5   1  10 1186.51 163.477   1
  -5   1  11 1732.03 467.548   1
  -5   1  12 291.804 419.113   1
  -5   1  13 1335.59 483.821   1
  -5   1  14 757.703 488.276   1
  -5   1  15 2106.70 613.388   1
  -5   1  16 1746.70 595.526   1
  -5   1  17 1533.06 622.379   1
  -5   1  18 696.976 620.883   1
  -5   1  19 680.040 630.497   1
  -5   2 -13 338.265 502.503   1
  -5   2 -12 916.505 483.641   1
  -5   2 -11 67.7819 385.902   1
  -5   2 -10 1545.85 757.981   1
  -5   2  -9 62.1660 667.536   1
  -5   2  -8 1914.42 726.891   1
  -5   2  -7 131.180 608.642   1
  -5   2  -6 2855.35 734.791   1
  -5   2  -5 647.544 250.138   1
  -5   2  -4 132.586 218.410   1
  -5   2  -3 2396.90 286.462   1
  -5   2  -2 2813.06 293.591   1
  -5   2  -1 7.20925 197.119   1
  -5   2   0 949.303 226.004   1
  -5   2   1 2511.58 473.355   1
  -5   2   2 1054.80 353.786   1
  -5   2   3 1773.47 371.062   1
  -5   2   4 7697.81 137.835   1
  -5   2   5 252.671 56.2036   1
  -5   2   6 3248.09 106.832   1
  -5   2   7 1687.68 121.096   1
  -5   2   8 3236.64 195.070   1
  -5   2   9 554.252 119.370   1
  -5   2  10 4357.77 326.609   1
  -5   2  11 736.042 405.922   1
  -5   2  12 2321.51 527.647   1
  -5   2  13 981.905 466.201   1
  -5   2  14 1201.41 560.390   1
  -5   2  15 566.546 515.294   1
  -5   2  16 1474.92 598.712   1
  -5   2  17 575.546 604.418   1
  -5   2  18 749.080 618.981   1
  -5   3 -14 47.4778 515.195   1
  -5   3 -13 3246.77 624.032   1
  -5   3 -12 537.923 472.772   1
  -5   3 -11 1316.73 501.346   1
  -5   3  -8 673.515 246.655   1
  -5   3  -7 4271.70 353.969   1
  -5   3  -6 12.3352 209.559   1
  -5   3  -5 2746.05 295.168   1
  -5   3  -4 344.768 221.542   1
  -5   3  -3 2473.49 286.600   1
  -5   3  -2 1307.89 251.778   1
  -5   3  -1 4972.01 341.665   1
  -5   3   0 719.476 222.992   1
  -5   3   1 5129.23 548.391   1
  -5   3   2 1286.55 367.433   1
  -5   3   3 926.693 74.4056   1
  -5   3   4 3973.02 162.549   1
  -5   3   5 2761.93 93.6966   1
  -5   3   6 701.515 83.8426   1
  -5   3   7 1066.54 107.652   1
  -5   3   8 1479.21 158.273   1
  -5   3   9 1717.72 169.566   1
  -5   3  10 2651.62 199.713   1
  -5   3  11 2564.51 284.424   1
  -5   3  12 837.039 228.272   1
  -5   3  13 1226.00 509.063   1
  -5   3  14 921.772 551.309   1
  -5   3  15 1575.56 569.376   1
  -5   3  16 445.645 586.762   1
  -5   3  17 1366.31 605.077   1
  -5   3  18 835.008 633.100   1
  -5   4 -14 835.876 545.271   1
  -5   4 -13 1186.71 527.335   1
  -5   4 -12 2724.68 587.107   1
  -5   4 -10 1502.72 291.733   1
  -5   4  -9 1561.52 293.646   1
  -5   4  -8 1981.77 310.279   1
  -5   4  -7 94.6255 237.433   1
  -5   4  -6 5233.71 434.010   1
  -5   4  -5 72.0770 251.191   1
  -5   4  -4 2337.00 318.072   1
  -5   4  -3 2088.13 274.716   1
  -5   4  -2 4000.85 329.063   1
  -5   4  -1 184.218 183.213   1
  -5   4   0 2238.38 452.447   1
  -5   4   3 218.883 91.0117   1
  -5   4   4 2895.73 164.132   1
  -5   4   5 608.828 100.824   1
  -5   4   6 3257.45 134.330   1
  -5   4   7 2093.56 168.975   1
  -5   4   8 4814.10 225.673   1
  -5   4   9 240.363 136.654   1
  -5   4  10 2207.41 196.866   1
  -5   4  11 166.728 155.329   1
  -5   4  12 3318.39 309.773   1
  -5   4  13 84.3096 191.212   1
  -5   4  14 1584.80 253.570   1
  -5   4  15 349.620 533.161   1
  -5   4  16 1125.38 608.001   1
  -5   4  17 1405.50 646.427   1
  -5   4  18 844.736 683.624   1
  -5   5 -14 117.141 492.677   1
  -5   5 -13 1090.63 494.664   1
  -5   5 -12 353.172 471.006   1
  -5   5 -10 397.282 271.956   1
  -5   5  -9 3126.30 363.994   1
  -5   5  -8 133.349 232.908   1
  -5   5  -7 1160.95 293.312   1
  -5   5  -6 90.6933 255.754   1
  -5   5  -5 6015.99 462.804   1
  -5   5  -4 70.9878 227.975   1
  -5   5  -3 1912.67 308.640   1
  -5   5  -2 706.658 254.865   1
  -5   5  -1 455.066 243.684   1
  -5   5   0 827.367 267.355   1
  -5   5   2 1631.59 155.927   1
  -5   5   3 2137.70 158.328   1
  -5   5   4 2377.79 333.368   1
  -5   5   5 5299.04 172.881   1
  -5   5   6 932.691 102.908   1
  -5   5   7 1894.27 172.480   1
  -5   5   8 3351.66 212.127   1
  -5   5   9 3983.95 231.430   1
  -5   5  10 935.041 172.052   1
  -5   5  11 3422.93 241.102   1
  -5   5  12 935.424 183.285   1
  -5   5  13 1991.14 222.599   1
  -5   5  14 1054.28 529.070   1
  -5   5  15 1373.75 608.131   1
  -5   5  16 471.508 545.864   1
  -5   5  17 2126.84 742.849   1
  -5   6 -14 1385.87 534.287   1
  -5   6 -13 3.53305 467.181   1
  -5   6 -12 3159.98 601.571   1
  -5   6 -10 1699.44 300.273   1
  -5   6  -9 289.200 262.270   1
  -5   6  -8 3434.71 394.890   1
  -5   6  -7 599.594 249.772   1
  -5   6  -6 1816.09 307.264   1
  -5   6  -5 59.6332 250.536   1
  -5   6  -4 1172.72 280.083   1
  -5   6  -3 437.845 247.931   1
  -5   6  -2 2900.58 362.231   1
  -5   6  -1 630.004 259.554   1
  -5   6   0 1262.06 303.140   1
  -5   6   1 109.688 232.886   1
  -5   6   2 3688.86 209.807   1
  -5   6   3 498.654 70.5975   1
  -5   6   4 2597.38 137.154   1
  -5   6   5 932.413 115.367   1
  -5   6   6 2492.55 187.837   1
  -5   6   7 209.336 141.639   1
  -5   6   8 1809.31 186.685   1
  -5   6   9 1432.13 182.110   1
  -5   6  10 2319.17 215.736   1
  -5   6  11 209.842 157.365   1
  -5   6  12 2292.21 225.064   1
  -5   6  13 190.132 171.800   1
  -5   6  14 976.090 311.803   1
  -5   6  15 1206.80 645.013   1
  -5   6  16 411.477 577.778   1
  -5   7 -14-59.4578 496.895   1
  -5   7 -13 1183.93 500.682   1
  -5   7 -12 271.591 446.963   1
  -5   7 -11 1973.99 356.191   1
  -5   7 -10 544.799 279.872   1
  -5   7  -9 2170.23 358.111   1
  -5   7  -8 416.685 270.584   1
  -5   7  -7 1664.03 332.244   1
  -5   7  -6 222.200 265.549   1
  -5   7  -5 4152.38 415.736   1
  -5   7  -4-12.4731 263.182   1
  -5   7  -3 875.589 275.192   1
  -5   7  -2 1020.84 272.608   1
  -5   7  -1 4335.58 415.087   1
  -5   7   0 555.527 249.495   1
  -5   7   1 2722.10 133.276   1
  -5   7   2 938.302 113.239   1
  -5   7   3 3119.18 170.767   1
  -5   7   4 1670.77 134.809   1
  -5   7   5 3116.38 172.225   1
  -5   7   6 910.689 118.513   1
  -5   7   7 2152.06 193.213   1
  -5   7   8 781.901 169.504   1
  -5   7   9 2360.84 211.614   1
  -5   7  10 1061.22 182.181   1
  -5   7  11 3125.21 243.883   1
  -5   7  12 487.861 185.991   1
  -5   7  13 2344.68 324.802   1
  -5   7  14 243.680 301.269   1
  -5   7  15 1383.06 341.757   1
  -5   7  16 280.670 663.548   1
  -5   8 -14 685.144 550.104   1
  -5   8 -13 63.7443 483.962   1
  -5   8 -12 2391.40 560.994   1
  -5   8 -11 31.0356 286.519   1
  -5   8 -10 2229.02 357.217   1
  -5   8  -9 13.1383 258.416   1
  -5   8  -8 2141.48 344.038   1
  -5   8  -7 90.1797 248.921   1
  -5   8  -6 1468.70 327.346   1
  -5   8  -5 839.964 287.968   1
  -5   8  -4 5103.05 455.999   1
  -5   8  -3 417.929 277.781   1
  -5   8  -2 3155.20 188.823   1
  -5   8  -1 59.5203 110.861   1
  -5   8   0 516.234 118.204   1
  -5   8   1 740.136 139.062   1
  -5   8   2 4374.95 226.079   1
  -5   8   3 149.520 117.335   1
  -5   8   4 2075.38 158.003   1
  -5   8   5 144.242 124.341   1
  -5   8   6 2176.32 150.637   1
  -5   8   7 9.23688 116.436   1
  -5   8   8 2694.53 221.496   1
  -5   8   9 960.126 186.176   1
  -5   8  10 1857.95 214.139   1
  -5   8  11 550.352 185.804   1
  -5   8  12 2259.98 245.070   1
  -5   8  13 197.363 267.673   1
  -5   8  14 1894.09 386.455   1
  -5   8  15 308.342 348.111   1
  -5   9 -13 342.281 477.937   1
  -5   9 -12 182.550 418.911   1
  -5   9 -11 2556.73 322.826   1
  -5   9 -10 156.913 304.177   1
  -5   9  -9 1046.15 329.152   1
  -5   9  -8 146.135 289.478   1
  -5   9  -7 1396.36 338.762   1
  -5   9  -6 798.189 331.906   1
  -5   9  -5 1504.07 341.043   1
  -5   9  -4 201.015 142.925   1
  -5   9  -3 1129.62 171.815   1
  -5   9  -2 148.606 133.045   1
  -5   9  -1 532.015 145.515   1
  -5   9   0 1078.28 170.106   1
  -5   9   1 798.450 166.813   1
  -5   9   2 1181.31 175.013   1
  -5   9   3 3655.06 235.152   1
  -5   9   4 362.757 131.774   1
  -5   9   5 2110.99 179.146   1
  -5   9   6 606.901 128.297   1
  -5   9   7 1455.43 154.217   1
  -5   9   8 112.445 135.224   1
  -5   9   9 2435.60 194.792   1
  -5   9  10 446.485 187.097   1
  -5   9  11 1889.83 238.263   1
  -5   9  12 284.450 203.919   1
  -5   9  13 1431.01 344.130   1
  -5   9  14 204.962 323.924   1
  -5  10 -13 519.588 470.092   1
  -5  10 -12 1448.96 464.841   1
  -5  10 -11 318.376 256.428   1
  -5  10 -10 1445.27 353.351   1
  -5  10  -9 447.822 314.496   1
  -5  10  -8 2259.54 402.395   1
  -5  10  -7 127.313 297.073   1
  -5  10  -6 276.231 283.868   1
  -5  10  -5 167.628 173.487   1
  -5  10  -4 1369.21 198.127   1
  -5  10  -3 1238.01 188.169   1
  -5  10  -2 2472.88 226.103   1
  -5  10  -1 426.728 173.586   1
  -5  10   0 4801.88 286.312   1
  -5  10   1-20.7840 163.689   1
  -5  10   2 1801.45 214.326   1
  -5  10   3 536.346 177.858   1
  -5  10   4 2854.15 201.357   1
  -5  10   5 184.435 150.878   1
  -5  10   6 4090.82 214.903   1
  -5  10   7 81.5334 142.598   1
  -5  10   8 1206.37 172.448   1
  -5  10   9 349.271 163.708   1
  -5  10  10 2614.51 224.105   1
  -5  10  11 653.867 182.320   1
  -5  10  12 1775.22 350.542   1
  -5  10  13 28.2581 299.560   1
  -5  11 -12 167.077 251.341   1
  -5  11 -11 1416.98 314.023   1
  -5  11 -10 25.5960 327.117   1
  -5  11  -9 455.033 316.276   1
  -5  11  -8 135.229 353.330   1
  -5  11  -7 1368.67 367.985   1
   5   6 -11 702.260 349.849  -2
  -5  11  -6 702.260 349.849   1
  -5  11  -6 257.532 298.412   1
  -5  11  -5 1993.28 239.095   1
  -5  11  -4 501.911 194.939   1
  -5  11  -3 1323.08 216.407   1
  -5  11  -2 75.2130 189.617   1
  -5  11  -1 2956.84 269.074   1
  -5  11   0 26.1153 189.302   1
  -5  11   1 454.303 201.125   1
  -5  11   2 267.026 191.780   1
  -5  11   3 1374.37 221.924   1
  -5  11   4 330.066 192.651   1
  -5  11   5 1849.73 242.782   1
  -5  11   6 274.806 149.424   1
  -5  11   7 1142.57 178.464   1
  -5  11   8 199.911 168.927   1
  -5  11   9 876.672 228.070   1
  -5  11  10-15.2598 209.243   1
  -5  11  11 2093.55 280.014   1
  -5  12 -12 993.857 379.869   1
  -5  12 -11 285.906 268.092   1
  -5  12 -10 1071.77 285.379   1
  -5  12  -9 292.114 331.823   1
  -5  12  -8 311.317 340.564   1
  -5  12  -7 71.6448 344.267   1
  -5  12  -6 635.793 322.053   1
  -5  12  -5 72.5537 343.352   1
  -5  12  -4 1947.04 427.699   1
  -5  12  -3-5.46703 344.725   1
  -5  12  -2 439.353 332.950   1
  -5  12  -1 316.100 315.557   1
  -5  12   0 1409.59 394.354   1
  -5  12   1 11.0769 336.533   1
  -5  12   2 1702.28 448.846   1
  -5  12   3-56.6426 345.585   1
  -5  12   4 1852.98 422.138   1
  -5  12   5 321.801 247.489   1
  -5  12   6 2166.85 319.545   1
  -5  12   7 37.4880 268.879   1
  -5  12   8 1519.66 290.536   1
  -5  12   9-174.527 279.961   1
  -5  12  10 1615.52 312.722   1
  -5  13 -10 76.2027 277.631   1
  -5  13  -9 664.687 265.636   1
  -5  13  -8 134.193 346.873   1
  -5  13  -7 904.653 383.900   1
  -5  13  -6-33.6144 338.351   1
  -5  13  -5 698.088 387.010   1
  -5  13  -4 208.479 344.875   1
  -5  13  -3 2026.63 460.081   1
  -5  13  -2 28.9600 369.548   1
  -5  13  -1 491.132 384.322   1
  -5  13   0 145.917 398.794   1
  -5  13   1 1269.20 436.286   1
  -5  13   2 313.351 386.625   1
  -5  13   3 1830.52 448.568   1
  -5  13   4-120.436 387.831   1
  -5  13   5 823.104 295.003   1
  -5  13   6 184.157 277.695   1
  -5  13   7 1448.99 314.161   1
  -5  13   8 175.839 281.722   1
  -5  14  -9 325.505 389.079   1
  -5  14  -8 637.998 389.055   1
  -5  14  -7 256.639 370.245   1
  -5  14  -6 256.099 408.876   1
  -5  14  -5-132.679 355.802   1
  -5  14  -4 1211.55 424.885   1
  -5  14  -3 331.041 392.598   1
  -5  14  -2 1354.26 443.631   1
  -5  14  -1 172.850 401.367   1
  -5  14   0 2029.24 504.496   1
  -5  14   1 203.025 425.540   1
  -5  14   2 1496.47 480.310   1
  -5  14   3 98.9620 419.785   1
  -5  14   4 1956.25 358.226   1
  -5  14   5 6.16914 296.383   1
  -5  14   6 2116.22 365.280   1
  -5  15  -6 88.8731 400.869   1
  -5  15  -5 424.568 416.727   1
  -5  15   1 44.4724 426.119   1
  -5  15   2-136.373 443.871   1
  -4 -12   4 1578.61 372.005   1
  -4 -12   5 110.628 325.079   1
  -4 -12   6 1985.03 377.653   1
  -4 -12   7 277.327 312.592   1
  -4 -12   8 1478.40 362.207   1
  -4 -12   9 223.046 330.306   1
  -4 -11   0 386.625 329.584   1
  -4 -11   1 2153.74 375.138   1
  -4 -11   2 166.971 303.742   1
  -4 -11   3 2830.14 387.026   1
  -4 -11   4 347.725 308.949   1
  -4 -11   5 1579.95 355.724   1
   4 -15   2 1674.63 584.827  -2
  -4 -11   6 1674.63 584.827   1
  -4 -11   6 334.696 413.376   1
  -4 -11   7 2192.97 360.829   1
   4 -15   4 663.047 583.173  -2
  -4 -11   8 663.047 583.173   1
  -4 -11   8 494.526 470.613   1
  -4 -11   9 1946.31 360.789   1
   4 -15   6-24.6440 538.023  -2
  -4 -11  10-24.6440 538.023   1
  -4 -11  10 58.5120 416.732   1
   4 -15   7 3370.15 689.321  -2
  -4 -11  11 3370.15 689.321   1
  -4 -11  11 710.035 446.482   1
  -4 -11  12 131.924 320.047   1
  -4 -11  13 2103.23 388.315   1
  -4 -10  -3-183.441 317.923   1
  -4 -10  -2 1986.25 372.387   1
  -4 -10  -1 62.0418 296.933   1
  -4 -10   0 1470.11 339.395   1
  -4 -10   1 411.168 282.282   1
  -4 -10   2 4163.24 408.145   1
  -4 -10   3 217.524 278.019   1
  -4 -10   4 2833.09 358.471   1
   4 -14   1 2038.77 550.896  -2
  -4 -10   5 2038.77 550.896   1
  -4 -10   5 786.469 450.419   1
   4 -14   2 4487.14 614.213  -2
  -4 -10   6 4487.14 614.213   1
  -4 -10   6 3545.10 555.692   1
   4 -14   3 1794.58 585.855  -2
  -4 -10   7 1794.58 585.855   1
  -4 -10   7 145.169 424.788   1
  -4 -10   8 1227.01 311.356   1
   4 -14   5 1042.51 534.231  -2
  -4 -10   9 1042.51 534.231   1
  -4 -10   9 199.834 356.019   1
  -4 -10  10 1555.70 325.215   1
  -4 -10  11 748.310 301.751   1
  -4 -10  12 1709.55 343.328   1
   4 -14   9 1352.99 604.231  -2
  -4 -10  13 1352.99 604.231   1
  -4 -10  13 279.926 405.589   1
   4 -14  10 3331.61 703.987  -2
  -4 -10  14 3331.61 703.987   1
  -4 -10  14 2113.58 486.343   1
   4 -14  11 641.781 658.451  -2
  -4 -10  15 641.781 658.451   1
  -4 -10  15 663.340 414.005   1
  -4  -9  -5 1441.84 343.901   1
  -4  -9  -4 553.988 303.793   1
  -4  -9  -3 1724.00 345.306   1
  -4  -9  -2 45.0812 268.147   1
  -4  -9  -1 2943.75 354.087   1
  -4  -9   0 291.176 274.637   1
  -4  -9   1 3090.83 347.515   1
  -4  -9   2 329.942 256.866   1
  -4  -9   3 2422.07 317.583   1
  -4  -9   4 289.014 250.552   1
  -4  -9   5 2595.46 326.010   1
  -4  -9   6 155.222 255.809   1
  -4  -9   7 4464.41 387.676   1
  -4  -9   8 460.950 254.025   1
   4 -13   5 3859.22 601.594  -2
  -4  -9   9 3859.22 601.594   1
  -4  -9   9 3014.37 474.011   1
  -4  -9  10 323.644 260.782   1
   4 -13   7 2270.68 587.077  -2
  -4  -9  11 2270.68 587.077   1
  -4  -9  11 1771.43 445.352   1
   4 -13   8 903.550 551.710  -2
  -4  -9  12 903.550 551.710   1
  -4  -9  12 341.392 358.606   1
  -4  -9  13 2476.75 354.681   1
   4 -13  10 1482.72 590.174  -2
  -4  -9  14 1482.72 590.174   1
  -4  -9  14 33.1532 381.700   1
  -4  -9  15 1577.18 446.415   1
  -4  -9  16 432.594 353.382   1
  -4  -8  -7 240.679 323.680   1
  -4  -8  -6 1430.14 350.750   1
  -4  -8  -5 99.1727 289.053   1
  -4  -8  -4 2111.44 339.356   1
  -4  -8  -3 315.061 261.135   1
  -4  -8  -2 2918.31 339.398   1
  -4  -8  -1 227.826 244.813   1
  -4  -8   0 4689.27 367.948   1
  -4  -8   1 444.839 241.312   1
  -4  -8   2 2481.52 299.019   1
  -4  -8   3 181.229 225.768   1
  -4  -8   4 6192.39 390.915   1
  -4  -8   5 539.115 232.594   1
  -4  -8   6 4648.68 356.829   1
  -4  -8   7 186.074 231.905   1
   4 -12   4 5350.88 598.850  -2
  -4  -8   8 5350.88 598.850   1
  -4  -8   8 4952.65 531.579   1
   4 -12   5 1647.22 499.705  -2
  -4  -8   9 1647.22 499.705   1
  -4  -8   9 156.614 313.887   1
   4 -12   6 2604.56 553.992  -2
  -4  -8  10 2604.56 553.992   1
  -4  -8  10 2139.23 420.893   1
  -4  -8  11 60.8349 252.831   1
  -4  -8  12 2063.50 318.818   1
  -4  -8  13 181.884 351.004   1
  -4  -8  14 1608.10 418.347   1
  -4  -8  15 198.980 350.574   1
  -4  -8  16 1541.70 467.452   1
  -4  -8  17 98.9103 356.392   1
  -4  -7  -8 238.411 253.111   1
  -4  -7  -7 1730.62 285.293   1
  -4  -7  -6 442.329 219.527   1
  -4  -7  -5 1710.85 249.918   1
  -4  -7  -4 142.979 256.426   1
  -4  -7  -3 2432.31 313.850   1
  -4  -7  -2 13.7238 225.033   1
  -4  -7  -1 2317.80 286.454   1
  -4  -7   0 286.912 214.381   1
  -4  -7   1 2752.20 291.894   1
  -4  -7   2 1030.11 228.004   1
  -4  -7   3 7077.25 388.298   1
  -4  -7   4 235.777 202.183   1
  -4  -7   5 2891.44 294.762   1
  -4  -7   6 235.766 215.694   1
  -4  -7   7 2552.23 289.500   1
  -4  -7   8 154.310 215.918   1
  -4  -7   9 6170.01 382.328   1
  -4  -7  10 66.5973 231.648   1
  -4  -7  11 2212.92 302.903   1
  -4  -7  12 785.233 333.058   1
  -4  -7  13 2048.68 403.566   1
  -4  -7  14 1267.82 368.827   1
  -4  -7  15 2047.03 415.064   1
  -4  -7  16 128.404 266.443   1
  -4  -7  17 904.605 309.691   1
  -4  -7  18 43.5096 479.604   1
  -4  -6  -9 220.867 247.776   1
  -4  -6  -8 1436.36 276.139   1
  -4  -6  -7 354.506 187.252   1
  -4  -6  -6 1895.89 247.831   1
  -4  -6  -5 99.7754 184.947   1
  -4  -6  -4 2656.36 303.903   1
  -4  -6  -3 103.273 222.076   1
  -4  -6  -2 6358.81 378.246   1
  -4  -6  -1 163.662 195.415   1
  -4  -6   0 4554.07 320.773   1
  -4  -6   1 100.332 196.498   1
  -4  -6   2 6250.92 347.670   1
  -4  -6   3 421.814 191.361   1
  -4  -6   4 4350.00 301.734   1
  -4  -6   5 746.296 203.618   1
  -4  -6   6 6941.55 360.957   1
  -4  -6   7 889.772 221.241   1
  -4  -6   8 5178.79 335.303   1
  -4  -6   9 204.830 193.070   1
  -4  -6  10 5076.87 460.505   1
  -4  -6  11-39.5531 282.675   1
  -4  -6  12 1245.85 301.663   1
  -4  -6  13 306.489 285.727   1
  -4  -6  14 1983.94 302.980   1
  -4  -6  15 62.6308 237.428   1
  -4  -6  16 1353.27 299.323   1
  -4  -6  17 42.8786 269.758   1
  -4  -6  18 372.302 537.022   1
  -4  -5 -10 185.181 210.165   1
  -4  -5  -9 863.800 211.653   1
  -4  -5  -8 195.697 193.121   1
  -4  -5  -7 1826.12 243.749   1
  -4  -5  -6 514.839 200.951   1
  -4  -5  -5 2498.29 301.648   1
  -4  -5  -4 348.779 223.268   1
  -4  -5  -3 3615.98 303.524   1
  -4  -5  -2 1514.54 240.424   1
  -4  -5  -1 5320.34 324.179   1
  -4  -5   0 471.185 189.024   1
  -4  -5   1 5499.89 307.487   1
  -4  -5   2 1218.42 197.998   1
  -4  -5   3 5616.56 303.674   1
  -4  -5   4 3389.03 258.023   1
  -4  -5   5 8965.47 370.947   1
  -4  -5   6 511.442 192.934   1
  -4  -5   7 5810.89 319.789   1
  -4  -5   8 0.16730 181.138   1
  -4  -5   9 6095.33 450.922   1
  -4  -5  10 151.501 254.677   1
  -4  -5  11 5714.84 457.179   1
  -4  -5  12 563.532 217.016   1
  -4  -5  13 2244.76 276.685   1
  -4  -5  14 427.685 221.757   1
  -4  -5  15 2198.97 302.671   1
  -4  -5  16 133.341 243.730   1
  -4  -5  17 1163.98 558.952   1
  -4  -5  18 284.832 505.429   1
  -4  -5  19 424.085 535.677   1
  -4  -4 -11 391.213 228.339   1
  -4  -4 -10 1851.24 251.772   1
  -4  -4  -9 407.540 230.828   1
  -4  -4  -8 2376.19 271.359   1
  -4  -4  -7 1354.40 225.408   1
  -4  -4  -6 3137.67 317.860   1
  -4  -4  -5 45.5288 208.731   1
  -4  -4  -4 4768.90 330.508   1
  -4  -4  -3 850.195 202.000   1
  -4  -4  -2 2087.80 233.671   1
  -4  -4  -1 286.219 160.564   1
  -4  -4   0 10182.9 364.529   1
  -4  -4   1 64.0439 159.861   1
  -4  -4   2 5379.19 282.793   1
  -4  -4   3 1442.92 183.601   1
  -4  -4   4 4793.66 268.265   1
  -4  -4   5 815.995 174.218   1
  -4  -4   6 5637.66 291.466   1
  -4  -4   7 424.895 170.609   1
  -4  -4   8 5600.21 410.286   1
  -4  -4   9 1981.22 304.283   1
  -4  -4  10 5310.63 401.011   1
  -4  -4  11 411.920 202.808   1
  -4  -4  12 1874.49 249.441   1
  -4  -4  13 669.772 225.705   1
  -4  -4  14 1679.52 261.171   1
  -4  -4  15 195.927 207.520   1
  -4  -4  16 2074.61 287.599   1
  -4  -4  17-1.21487 531.014   1
  -4  -4  18 736.437 601.054   1
  -4  -4  19-41.7382 563.356   1
  -4  -3 -12 542.797 286.535   1
  -4  -3 -11 738.882 280.484   1
  -4  -3 -10 232.445 236.136   1
  -4  -3  -9 2481.38 273.325   1
  -4  -3  -8 377.704 202.525   1
  -4  -3  -7 2103.03 299.387   1
  -4  -3  -6 3345.46 315.279   1
  -4  -3  -5 3173.88 298.866   1
  -4  -3  -4 675.621 193.054   1
  -4  -3  -3 5287.92 303.769   1
  -4  -3  -2 373.982 167.841   1
  -4  -3  -1 6818.35 297.864   1
  -4  -3   0 3084.52 212.749   1
  -4  -3   1 9274.33 315.187   1
  -4  -3   2 565.996 141.040   1
  -4  -3   3 11935.3 347.784   1
  -4  -3   4 445.228 139.380   1
  -4  -3   5 12990.3 375.341   1
  -4  -3   6 2887.49 319.160   1
  -4  -3   7 10154.9 481.118   1
  -4  -3   8 1978.32 269.430   1
  -4  -3   9 6300.00 324.135   1
  -4  -3  10 241.463 177.183   1
  -4  -3  11 7903.62 364.882   1
  -4  -3  12 536.340 183.973   1
  -4  -3  13 2417.85 253.628   1
  -4  -3  14 2470.32 264.740   1
  -4  -3  15 1299.65 228.044   1
  -4  -3  16-109.186 465.680   1
  -4  -3  17 1873.20 593.176   1
  -4  -3  18-36.0151 543.411   1
  -4  -3  19 373.236 597.265   1
   4  -6 -17 1213.74 666.279  -2
  -4  -2 -13 1213.74 666.279   1
  -4  -2 -13 534.361 392.839   1
  -4  -2 -12 596.727 286.569   1
  -4  -2 -11 168.156 367.406   1
  -4  -2 -10 2628.37 414.477   1
  -4  -2  -9 753.667 214.442   1
  -4  -2  -8 3950.14 360.775   1
  -4  -2  -7 157.233 209.366   1
  -4  -2  -6 3276.79 309.037   1
  -4  -2  -5 3327.54 285.311   1
  -4  -2  -4 5133.87 308.041   1
  -4  -2  -3 23.7575 149.926   1
  -4  -2  -2 9737.28 333.266   1
  -4  -2  -1 7.12783 124.057   1
  -4  -2   0 3259.68 198.607   1
  -4  -2   1 2169.55 121.283   1
  -4  -2   2 10079.3 288.080   1
  -4  -2   3 1187.45 146.702   1
  -4  -2   4 4907.96 226.568   1
  -4  -2   5 452.123 209.033   1
  -4  -2   6 4613.69 334.078   1
  -4  -2   7 364.141 195.360   1
  -4  -2   8 6786.78 307.565   1
  -4  -2   9 418.206 161.549   1
  -4  -2  10 4880.52 277.246   1
  -4  -2  11 65.5337 162.583   1
  -4  -2  12 2630.96 234.718   1
  -4  -2  13 232.470 171.251   1
   4  -6  10 3593.11 688.401  -2
  -4  -2  14 3593.11 688.401   1
  -4  -2  14 3075.13 295.024   1
  -4  -2  15 211.491 472.021   1
  -4  -2  16 1864.33 547.081   1
  -4  -2  17 108.368 492.928   1
  -4  -2  18 2170.21 652.516   1
  -4  -2  19 226.331 586.847   1
  -4  -1 -14 185.255 316.831   1
  -4  -1 -13 1249.50 332.106   1
  -4  -1 -12 745.887 373.416   1
  -4  -1 -11 606.068 343.021   1
  -4  -1 -10 411.647 335.447   1
  -4  -1  -9 2040.30 378.163   1
  -4  -1  -8-14.2408 567.103   1
  -4  -1  -7 5125.93 361.983   1
  -4  -1  -6 3795.27 306.619   1
  -4  -1  -5 2771.09 266.084   1
  -4  -1  -4 870.944 186.003   1
  -4  -1  -3 5527.63 272.396   1
  -4  -1  -2 2495.64 188.810   1
  -4  -1  -1 9140.25 273.482   1
  -4  -1   0 41.0666 75.2185   1
  -4  -1   1 14381.0 220.468   1
  -4  -1   2 2858.28 152.794   1
  -4  -1   3 11720.7 284.704   1
  -4  -1   4 755.213 126.060   1
  -4  -1   5 13557.6 505.500   1
  -4  -1   6 1141.83 198.360   1
  -4  -1   7 14737.5 399.156   1
  -4  -1   8 2991.28 217.541   1
  -4  -1   9 8029.71 308.029   1
  -4  -1  10 927.603 168.614   1
  -4  -1  11 4398.12 246.364   1
  -4  -1  12 1050.05 175.735   1
  -4  -1  13 3794.29 244.978   1
  -4  -1  14-73.6338 452.557   1
  -4  -1  15 1344.39 507.813   1
  -4  -1  16-130.195 514.023   1
  -4  -1  17 1124.85 565.266   1
  -4  -1  18 257.678 536.303   1
  -4  -1  19 463.720 634.729   1
  -4   0 -14 670.304 314.997   1
  -4   0 -13 255.243 288.659   1
  -4   0 -12 1221.34 412.737   1
  -4   0 -11 541.560 356.989   1
  -4   0 -10 1432.24 347.786   1
  -4   0  -9 2971.65 715.501   1
  -4   0  -8 7464.94 883.435   1
  -4   0  -7 168.520 558.302   1
  -4   0  -6 4969.13 732.615   1
  -4   0  -5 2496.90 587.604   1
  -4   0  -4 2936.25 566.261   1
  -4   0  -3 523.009 137.097   1
  -4   0  -2 6511.64 238.584   1
  -4   0  -1 254.580 93.7318   1
  -4   0   0 13133.5 202.993   1
  -4   0   1 1761.19 81.4815   1
  -4   0   2 6430.81 122.238   1
  -4   0   3 2798.81 114.077   1
  -4   0   4 8232.39 250.160   1
  -4   0   5 94.6695 106.015   1
  -4   0   6 3316.79 217.396   1
  -4   0   7 728.239 146.715   1
  -4   0   8 8503.82 284.547   1
  -4   0   9 104.208 122.288   1
  -4   0  10 5855.26 237.727   1
  -4   0  11 763.499 135.224   1
  -4   0  12 2840.22 190.580   1
  -4   0  13 714.328 148.027   1
  -4   0  14 2654.58 569.198   1
  -4   0  15 752.555 502.697   1
  -4   0  16 1551.18 580.146   1
  -4   0  17 356.359 548.431   1
  -4   0  18 1960.01 671.204   1
  -4   0  19 35.8524 604.371   1
  -4   1 -15 919.487 358.387   1
  -4   1 -14 191.716 334.567   1
  -4   1 -13 1886.44 524.510   1
  -4   1 -12 2711.25 439.163   1
  -4   1 -11 1861.49 408.511   1
  -4   1 -10 248.161 331.419   1
  -4   1  -9 1812.82 626.956   1
  -4   1  -8 964.628 600.990   1
  -4   1  -7 4991.52 765.726   1
  -4   1  -6 1398.66 558.441   1
  -4   1  -5 7021.04 788.092   1
  -4   1  -4 3913.81 597.494   1
  -4   1  -3 7289.29 694.382   1
  -4   1  -2 840.433 418.277   1
  -4   1  -1 10740.3 704.283   1
  -4   1   0 1808.37 380.734   1
  -4   1   1 10426.8 614.253   1
  -4   1   2 8700.08 524.189   1
  -4   1   3 17869.5 206.993   1
  -4   1   4 1674.68 66.9551   1
  -4   1   5 10412.1 145.534   1
  -4   1   6 3659.84 149.409   1
  -4   1   7 9379.50 246.001   1
  -4   1   8 5461.98 182.860   1
  -4   1   9 6414.41 208.971   1
  -4   1  10 321.610 93.7776   1
  -4   1  11 5239.57 181.506   1
  -4   1  12 974.984 115.173   1
  -4   1  13 1391.73 447.001   1
  -4   1  14 824.430 459.202   1
  -4   1  15 2524.30 567.167   1
  -4   1  16 181.827 504.901   1
  -4   1  17 786.377 552.793   1
  -4   1  18 118.562 631.262   1
  -4   1  19 795.879 715.942   1
   4  -2 -19 1229.39 695.473  -2
  -4   2 -15 1229.39 695.473   1
  -4   2 -15 843.762 514.394   1
  -4   2 -14 280.144 478.766   1
  -4   2 -13 156.892 458.052   1
  -4   2 -12 1964.29 490.533   1
  -4   2 -11 1020.46 458.860   1
  -4   2 -10 1103.87 349.791   1
  -4   2  -9 1463.99 641.790   1
  -4   2  -8 843.175 576.134   1
  -4   2  -7 709.248 564.622   1
  -4   2  -6 8843.52 880.726   1
  -4   2  -5 5880.13 711.719   1
  -4   2  -4 2654.34 523.096   1
  -4   2  -3 46.4688 428.417   1
  -4   2  -2 3942.57 531.081   1
  -4   2  -1 47.7183 355.161   1
  -4   2   0 11073.1 676.288   1
  -4   2   1 267.591 299.103   1
  -4   2   2 9617.19 564.507   1
  -4   2   3 1044.04 59.5412   1
  -4   2   4 9629.40 176.974   1
  -4   2   5 415.977 61.5086   1
  -4   2   6 5910.12 139.873   1
  -4   2   7 262.193 81.4277   1
  -4   2   8 7079.42 237.945   1
  -4   2   9 5838.79 319.634   1
   4  -2   6 15314.4 865.668  -2
  -4   2  10 15314.4 865.668   1
  -4   2  10 7953.19 437.444   1
  -4   2  11 1119.19 210.720   1
  -4   2  12 5821.98 649.055   1
  -4   2  13 255.099 421.448   1
  -4   2  14 1803.22 541.830   1
  -4   2  15 524.990 476.902   1
  -4   2  16 1777.64 605.839   1
  -4   2  17 335.458 541.701   1
  -4   2  18 1950.34 731.422   1
  -4   2  19 431.924 619.207   1
   4  -1 -19 2591.29 695.824  -2
  -4   3 -15 2591.29 695.824   1
  -4   3 -15 569.390 496.034   1
  -4   3 -14 155.463 477.762   1
  -4   3 -13 1349.05 485.829   1
  -4   3 -12 1101.43 447.901   1
  -4   3 -11 2092.39 467.403   1
  -4   3  -7 8260.64 891.991   1
  -4   3  -6 1529.04 595.872   1
  -4   3  -5 12666.2 929.895   1
  -4   3  -4 10124.1 815.838   1
  -4   3  -3 8723.87 725.567   1
  -4   3  -2 7267.51 654.742   1
  -4   3  -1 11442.4 730.577   1
  -4   3   0 674.260 334.526   1
  -4   3   1 24366.1 876.492   1
  -4   3   2 8100.21 181.994   1
  -4   3   3 6309.72 215.989   1
  -4   3   4 2135.39 99.9314   1
  -4   3   5 7937.89 151.085   1
  -4   3   6 790.702 91.5705   1
  -4   3   7 6510.21 226.513   1
  -4   3   8 923.150 139.095   1
  -4   3   9 6504.17 251.112   1
  -4   3  10 409.736 141.385   1
  -4   3  11 1869.80 228.043   1
  -4   3  12 1061.90 209.113   1
  -4   3  13 1026.71 472.606   1
  -4   3  14 421.740 483.670   1
  -4   3  15 1591.11 580.044   1
  -4   3  16 1240.12 580.420   1
  -4   3  17 1189.68 678.356   1
  -4   3  18 93.3678 646.274   1
  -4   4 -16 854.304 557.779   1
  -4   4 -15 874.193 350.218   1
  -4   4 -14 786.955 469.189   1
  -4   4 -13 189.698 436.204   1
  -4   4 -12 1849.86 505.794   1
  -4   4 -11 1582.64 449.038   1
  -4   4   1 191.477 99.7414   1
  -4   4   2 12089.3 309.587   1
  -4   4   3 3128.52 74.5446   1
  -4   4   4 8550.32 234.560   1
  -4   4   5 393.175 110.899   1
  -4   4   6 5437.91 209.531   1
  -4   4   7 787.428 135.750   1
  -4   4   8 6650.98 250.405   1
  -4   4   9 1304.47 161.001   1
  -4   4  10 5524.22 248.896   1
  -4   4  11 575.995 152.574   1
  -4   4  12 4463.64 247.416   1
   4   0   9 2851.60 332.269  -2
  -4   4  13 2851.60 332.269   1
  -4   4  13 935.711 469.055   1
  -4   4  14 1462.09 552.403   1
  -4   4  15 93.9389 525.349   1
  -4   4  16 1891.85 674.198   1
  -4   4  17 88.1713 620.058   1
  -4   4  18 1071.12 680.482   1
  -4   5 -16 69.3322 341.165   1
  -4   5 -15 1074.64 505.064   1
  -4   5 -14 1317.69 507.683   1
  -4   5 -13 591.582 464.792   1
  -4   5 -12 643.141 428.096   1
  -4   5 -11 2143.65 483.815   1
  -4   5 -10 788.374 227.361   1
  -4   5  -9 4436.72 365.435   1
  -4   5  -8 2669.77 310.841   1
  -4   5  -7 1892.34 282.748   1
  -4   5  -6 1352.22 262.421   1
  -4   5  -5 7280.44 440.005   1
  -4   5  -4 7106.19 427.263   1
  -4   5  -3 13262.8 546.539   1
  -4   5  -2 1246.27 251.656   1
  -4   5   1 7738.51 145.126   1
  -4   5   2 3459.58 122.739   1
  -4   5   3 16977.9 281.665   1
  -4   5   4 1324.29 111.987   1
  -4   5   5 4736.33 205.410   1
  -4   5   6 1747.76 155.508   1
  -4   5   7 3188.79 189.828   1
  -4   5   8 208.368 120.806   1
  -4   5   9 4008.02 222.178   1
  -4   5  10 1918.33 187.899   1
  -4   5  11 4388.11 246.386   1
  -4   5  12 333.768 161.137   1
  -4   5  13 1671.39 202.351   1
  -4   5  14 350.591 494.893   1
  -4   5  15 833.479 619.429   1
  -4   5  16 570.649 595.771   1
  -4   5  17 894.363 672.942   1
  -4   6 -16 307.991 343.282   1
  -4   6 -15 995.140 537.721   1
  -4   6 -14 449.036 469.068   1
  -4   6 -13 615.143 448.414   1
  -4   6 -12 728.646 406.955   1
  -4   6 -11 824.557 212.868   1
  -4   6 -10 1234.83 268.875   1
  -4   6  -9 27.8302 227.004   1
  -4   6  -8 1368.97 266.043   1
  -4   6  -7 2041.93 290.785   1
  -4   6  -6 2947.85 329.275   1
  -4   6  -5 596.886 223.674   1
  -4   6  -4 5389.47 397.763   1
  -4   6  -3 1256.17 271.967   1
  -4   6  -2 3499.90 174.257   1
  -4   6  -1 926.908 131.900   1
  -4   6   0 3388.94 192.574   1
  -4   6   1 492.829 129.562   1
  -4   6   2 8743.39 282.777   1
  -4   6   3 3491.47 125.943   1
  -4   6   4 5282.98 147.497   1
  -4   6   5 566.851 128.210   1
  -4   6   6 5411.77 234.022   1
  -4   6   7 775.028 144.207   1
  -4   6   8 3063.51 199.059   1
  -4   6   9 1863.64 185.611   1
  -4   6  10 3568.73 230.599   1
  -4   6  11 103.084 156.346   1
  -4   6  12 3368.52 244.010   1
  -4   6  13 836.389 280.208   1
  -4   6  14 571.120 301.061   1
  -4   6  15 372.997 547.082   1
  -4   6  16 903.082 687.535   1
  -4   6  17 412.801 673.557   1
  -4   7 -16-58.5446 340.156   1
  -4   7 -15 417.722 512.927   1
  -4   7 -14 755.183 475.734   1
  -4   7 -13 1814.86 498.399   1
  -4   7 -12 865.759 436.093   1
  -4   7 -11 1765.05 260.299   1
  -4   7 -10 4576.57 398.843   1
  -4   7  -9 2554.49 334.680   1
  -4   7  -8 3277.89 355.688   1
  -4   7  -7 5572.17 423.677   1
  -4   7  -6 2931.69 332.527   1
  -4   7  -5 4711.48 400.696   1
  -4   7  -4 6144.99 271.040   1
  -4   7  -3 5952.74 253.433   1
  -4   7  -2 5072.43 231.616   1
  -4   7  -1 7905.25 326.461   1
  -4   7   0 3090.48 231.087   1
  -4   7   1 10908.9 374.622   1
  -4   7   2 1694.08 157.333   1
  -4   7   3 5354.53 199.293   1
  -4   7   4 4484.84 152.082   1
  -4   7   5 7684.13 188.040   1
  -4   7   6 376.749 88.9765   1
  -4   7   7 3048.16 213.003   1
  -4   7   8 294.346 146.003   1
  -4   7   9 3681.74 234.765   1
  -4   7  10 1073.83 186.560   1
  -4   7  11 1844.54 212.416   1
  -4   7  12 104.762 167.749   1
  -4   7  13 2037.99 340.965   1
  -4   7  14 201.654 308.892   1
  -4   7  15 16.2421 566.853   1
  -4   7  16 59.1120 578.727   1
  -4   8 -15 21.1349 458.666   1
  -4   8 -14 353.402 426.365   1
  -4   8 -13 930.209 469.241   1
  -4   8 -12 1334.41 242.010   1
  -4   8 -11 653.954 227.573   1
  -4   8 -10 1739.26 316.146   1
  -4   8  -9 22.6473 250.042   1
  -4   8  -8 2381.15 339.296   1
  -4   8  -7 2561.63 343.928   1
  -4   8  -6 2965.51 346.999   1
  -4   8  -5 155.146 143.066   1
  -4   8  -4 5375.08 266.712   1
  -4   8  -3 1330.28 169.433   1
  -4   8  -2 3220.85 218.114   1
  -4   8  -1 1225.94 173.997   1
  -4   8   0 2339.18 205.627   1
  -4   8   1 1349.85 170.031   1
  -4   8   2 6502.41 223.028   1
  -4   8   3 2277.92 165.051   1
  -4   8   4 5418.22 221.542   1
  -4   8   5 1038.63 128.876   1
  -4   8   6 3153.73 177.424   1
  -4   8   7 1461.31 152.586   1
  -4   8   8 1886.66 202.338   1
  -4   8   9 637.798 176.328   1
  -4   8  10 2202.07 229.483   1
  -4   8  11 1247.54 203.807   1
  -4   8  12 1418.49 218.303   1
  -4   8  13 300.261 280.664   1
  -4   8  14 1418.80 350.263   1
  -4   8  15 158.874 362.569   1
  -4   9 -15 600.254 494.908   1
  -4   9 -14 709.256 476.580   1
  -4   9 -13 939.044 452.291   1
  -4   9 -12 1849.20 281.402   1
  -4   9 -11 1391.50 252.769   1
  -4   9 -10 1269.35 240.892   1
  -4   9  -9 1590.91 315.232   1
  -4   9  -8 865.760 281.656   1
  -4   9  -7 1444.41 215.136   1
  -4   9  -6 3822.91 267.273   1
  -4   9  -5 3839.14 263.295   1
  -4   9  -4 1271.99 195.555   1
  -4   9  -3 3811.60 255.688   1
  -4   9  -2 1858.61 208.692   1
  -4   9  -1 5121.43 287.198   1
  -4   9   0 4227.59 264.438   1
  -4   9   1 3537.79 252.328   1
  -4   9   2 393.533 128.801   1
  -4   9   3 7196.46 255.674   1
  -4   9   4 1592.79 169.088   1
  -4   9   5 3154.21 183.867   1
  -4   9   6 1206.86 150.640   1
  -4   9   7 2935.05 193.748   1
  -4   9   8 955.354 156.499   1
  -4   9   9 1660.20 217.659   1
  -4   9  10 781.247 199.791   1
  -4   9  11 1816.68 235.193   1
  -4   9  12 121.014 294.002   1
  -4   9  13 1995.81 372.812   1
  -4   9  14-155.208 330.935   1
  -4  10 -15 299.606 474.288   1
  -4  10 -14 621.398 457.097   1
  -4  10 -13 867.877 452.264   1
  -4  10 -12 852.590 253.643   1
  -4  10 -11 946.505 252.728   1
  -4  10 -10 856.925 246.026   1
  -4  10  -9 732.638 300.837   1
   4   6 -12 2577.62 430.860  -2
  -4  10  -8 2577.62 430.860   1
  -4  10  -8 1574.18 348.035   1
   4   6 -11 960.921 367.429  -2
  -4  10  -7 960.921 367.429   1
  -4  10  -7 921.542 327.072   1
   4   6 -10 4788.61 451.375  -2
  -4  10  -6 4788.61 451.375   1
  -4  10  -6 1408.09 332.533   1
   4   6  -9 2377.61 379.092  -2
  -4  10  -5 2377.61 379.092   1
  -4  10  -4 4178.28 383.383   1
  -4  10  -3 5927.89 430.380   1
  -4  10  -2 3876.15 387.077   1
  -4  10  -1 1758.51 314.378   1
  -4  10   0 1354.06 288.353   1
  -4  10   1 3435.68 344.109   1
  -4  10   2 3127.80 213.253   1
  -4  10   3 1904.81 205.004   1
  -4  10   4 3307.86 215.744   1
  -4  10   5 2526.39 187.097   1
  -4  10   6 2662.83 193.088   1
  -4  10   7 914.417 163.043   1
  -4  10   8 1392.58 176.945   1
  -4  10   9 262.559 159.849   1
  -4  10  10 1497.72 202.538   1
  -4  10  11 536.272 212.300   1
  -4  10  12 1175.42 326.698   1
  -4  10  13 41.9432 313.265   1
  -4  11 -14 795.874 480.233   1
  -4  11 -13 532.937 412.595   1
  -4  11 -12 871.277 265.925   1
  -4  11 -11 719.972 245.279   1
  -4  11 -10 3109.15 327.403   1
   4   7 -13 3071.07 492.425  -2
  -4  11  -9 3071.07 492.425   1
  -4  11  -9 652.039 246.718   1
   4   7 -12 505.193 386.844  -2
  -4  11  -8 505.193 386.844   1
  -4  11  -8 460.156 291.308   1
   4   7 -11 4044.51 465.284  -2
  -4  11  -7 4044.51 465.284   1
   4   7 -10 2064.12 417.597  -2
  -4  11  -6 2064.12 417.597   1
  -4  11  -5 3528.12 375.951   1
  -4  11  -4 1877.26 347.538   1
  -4  11  -3 2552.29 380.493   1
  -4  11  -2 623.636 282.306   1
  -4  11  -1 2203.74 354.766   1
  -4  11   0 880.995 297.233   1
  -4  11   1 4676.23 412.263   1
  -4  11   2 674.685 270.784   1
  -4  11   3 3607.51 387.385   1
  -4  11   4 1169.31 213.599   1
  -4  11   5 1883.86 207.517   1
  -4  11   6 669.778 161.770   1
  -4  11   7 2009.42 204.921   1
  -4  11   8 254.932 167.170   1
  -4  11   9 1263.91 199.395   1
  -4  11  10 454.010 178.212   1
  -4  11  11 842.560 256.812   1
  -4  11  12 375.155 266.693   1
  -4  12 -13 613.946 265.945   1
  -4  12 -12 453.852 278.695   1
  -4  12 -11 550.469 256.513   1
   4   8 -14 2949.89 509.458  -2
  -4  12 -10 2949.89 509.458   1
  -4  12 -10 591.152 242.154   1
   4   8 -13 1409.85 476.695  -2
  -4  12  -9 1409.85 476.695   1
  -4  12  -9 980.575 347.770   1
   4   8 -12 2790.74 509.494  -2
  -4  12  -8 2790.74 509.494   1
  -4  12  -8 958.759 346.845   1
   4   8 -11 583.526 403.420  -2
  -4  12  -7 583.526 403.420   1
   4   8 -10 3234.33 499.489  -2
  -4  12  -6 3234.33 499.489   1
   4   8  -9 2365.79 459.228  -2
  -4  12  -5 2365.79 459.228   1
   4   8  -8 7334.44 593.816  -2
  -4  12  -4 7334.44 593.816   1
  -4  12  -3 1920.35 386.118   1
  -4  12  -2 2356.70 410.566   1
  -4  12  -1 2359.71 404.006   1
  -4  12   0 1816.37 342.827   1
  -4  12   1 1820.44 327.832   1
  -4  12   2 1498.20 330.915   1
  -4  12   3 926.096 307.276   1
  -4  12   4 4003.09 431.083   1
  -4  12   5 1882.87 286.078   1
  -4  12   6 1046.93 263.315   1
  -4  12   7 1078.31 218.385   1
  -4  12   8 926.981 210.724   1
  -4  12   9 326.056 204.836   1
  -4  12  10 1467.40 248.198   1
  -4  13 -12 849.309 277.442   1
   4   9 -15 1245.95 543.771  -2
  -4  13 -11 1245.95 543.771   1
  -4  13 -11 360.265 250.053   1
   4   9 -14 1212.00 499.493  -2
  -4  13 -10 1212.00 499.493   1
  -4  13 -10 851.575 386.480   1
   4   9 -13 3763.22 576.924  -2
  -4  13  -9 3763.22 576.924   1
   4   9 -12 914.468 481.594  -2
  -4  13  -8 914.468 481.594   1
   4   9 -11 2798.56 517.367  -2
  -4  13  -7 2798.56 517.367   1
   4   9 -10 2116.96 481.223  -2
  -4  13  -6 2116.96 481.223   1
   4   9  -9 5838.93 600.352  -2
  -4  13  -5 5838.93 600.352   1
   4   9  -8 2131.11 522.279  -2
  -4  13  -4 2131.11 522.279   1
  -4  13  -3 1976.64 411.156   1
  -4  13  -2 1683.70 411.434   1
  -4  13  -1 1814.45 405.262   1
  -4  13   0 1066.94 368.886   1
  -4  13   1 659.941 325.019   1
  -4  13   2 951.971 340.702   1
  -4  13   3 3084.42 429.757   1
  -4  13   4 1410.24 293.931   1
  -4  13   5 1629.48 294.473   1
  -4  13   6 853.955 286.437   1
  -4  13   7 343.140 223.344   1
  -4  13   8 395.865 229.457   1
   4  10 -15 759.571 533.978  -2
  -4  14 -11 759.571 533.978   1
   4  10 -14 2786.06 590.885  -2
  -4  14 -10 2786.06 590.885   1
   4  10 -13 1854.35 552.410  -2
  -4  14  -9 1854.35 552.410   1
   4  10 -12 2907.87 550.897  -2
  -4  14  -8 2907.87 550.897   1
   4  10 -11 1362.47 496.140  -2
  -4  14  -7 1362.47 496.140   1
   4  10 -10 3430.66 553.719  -2
  -4  14  -6 3430.66 553.719   1
   4  10  -9 1161.40 516.271  -2
  -4  14  -5 1161.40 516.271   1
  -4  14  -4 499.339 400.888   1
  -4  14  -3 1552.96 417.657   1
  -4  14  -2 1529.63 449.396   1
  -4  14  -1 1127.81 408.399   1
  -4  14   0 1316.45 389.461   1
  -4  14   1 1406.60 404.847   1
  -4  14   2 875.979 357.752   1
  -4  14   3 1525.44 411.965   1
  -4  14   4 1660.79 313.046   1
  -4  14   5 1175.40 312.819   1
  -4  14   6 2163.15 354.440   1
   4  11 -12 1263.33 568.254  -2
  -4  15  -8 1263.33 568.254   1
   4  11 -11 2871.02 604.779  -2
  -4  15  -7 2871.02 604.779   1
   4  11 -10 977.832 519.351  -2
  -4  15  -6 977.832 519.351   1
   4  11  -9 3321.22 610.181  -2
  -4  15  -5 3321.22 610.181   1
   4  11  -8 731.212 566.201  -2
  -4  15  -4 731.212 566.201   1
  -4  15  -3 1291.59 492.797   1
  -4  15  -2 876.418 443.356   1
  -4  15  -1 641.734 440.313   1
  -4  15   0 327.187 384.023   1
  -4  15   1 1267.74 437.840   1
  -4  15   2 397.811 411.313   1
  -4  15   3 350.414 289.061   1
  -3 -13   3 1648.78 378.011   1
  -3 -13   4 754.030 353.278   1
   3 -16   2 1446.22 631.138  -2
  -3 -13   5 1446.22 631.138   1
  -3 -13   5 1615.23 535.956   1
   3 -16   3 1647.34 648.643  -2
  -3 -13   6 1647.34 648.643   1
  -3 -13   6 349.864 484.407   1
   3 -16   4 766.628 626.474  -2
  -3 -13   7 766.628 626.474   1
  -3 -13   7 768.069 469.352   1
   3 -16   5 1501.78 456.492  -2
  -3 -13   8 1501.78 456.492   1
   3 -16   6 1755.00 671.004  -2
  -3 -13   9 1755.00 671.004   1
  -3 -13   9 1467.65 529.800   1
  -3 -13  10 197.736 327.534   1
  -3 -12  -1 788.352 350.201   1
   3 -15  -3 1388.20 592.191  -2
  -3 -12   0 1388.20 592.191   1
  -3 -12   0 1121.38 542.926   1
   3 -15  -2 3016.59 633.053  -2
  -3 -12   1 3016.59 633.053   1
  -3 -12   1 734.078 519.896   1
   3 -15  -1 1759.80 574.130  -2
  -3 -12   2 1759.80 574.130   1
  -3 -12   2 2059.87 537.648   1
   3 -15   0 1716.71 598.683  -2
  -3 -12   3 1716.71 598.683   1
  -3 -12   3 1109.59 501.926   1
   3 -15   1 1663.36 621.595  -2
  -3 -12   4 1663.36 621.595   1
  -3 -12   4 1642.63 524.108   1
   3 -15   2 4049.16 676.208  -2
  -3 -12   5 4049.16 676.208   1
  -3 -12   5 1207.37 486.640   1
   3 -15   3 2096.13 611.998  -2
  -3 -12   6 2096.13 611.998   1
  -3 -12   6 2886.75 567.560   1
   3 -15   4 3953.83 697.461  -2
  -3 -12   7 3953.83 697.461   1
  -3 -12   7 538.443 465.240   1
   3 -15   5 2144.35 662.937  -2
  -3 -12   8 2144.35 662.937   1
  -3 -12   8 1654.27 483.785   1
   3 -15   6 2384.31 440.350  -2
  -3 -12   9 2384.31 440.350   1
   3 -15   7 1241.68 632.140  -2
  -3 -12  10 1241.68 632.140   1
  -3 -12  10 676.889 445.640   1
   3 -15   8 2915.46 698.441  -2
  -3 -12  11 2915.46 698.441   1
  -3 -12  11 506.443 441.355   1
   3 -15   9 1986.20 705.392  -2
  -3 -12  12 1986.20 705.392   1
  -3 -12  12 1448.81 479.616   1
   3 -15  10 2868.56 761.667  -2
  -3 -12  13 2868.56 761.667   1
  -3 -12  13 870.434 458.097   1
  -3 -11  -4 515.716 345.436   1
   3 -14  -6 1212.20 582.526  -2
  -3 -11  -3 1212.20 582.526   1
  -3 -11  -3 1329.01 589.694   1
  -3 -11  -2 752.607 318.590   1
   3 -14  -4 2436.08 597.719  -2
  -3 -11  -1 2436.08 597.719   1
  -3 -11  -1 2180.49 572.927   1
   3 -14  -3 4537.51 648.109  -2
  -3 -11   0 4537.51 648.109   1
  -3 -11   0 442.380 455.917   1
   3 -14  -2 1108.96 529.703  -2
  -3 -11   1 1108.96 529.703   1
  -3 -11   1 2340.02 553.764   1
   3 -14  -1 1500.05 552.764  -2
  -3 -11   2 1500.05 552.764   1
  -3 -11   2 447.350 445.501   1
   3 -14   0 1378.51 539.663  -2
  -3 -11   3 1378.51 539.663   1
  -3 -11   3 1222.96 470.143   1
   3 -14   1 2110.19 554.968  -2
  -3 -11   4 2110.19 554.968   1
  -3 -11   4 419.453 422.110   1
   3 -14   2 2307.92 580.575  -2
  -3 -11   5 2307.92 580.575   1
  -3 -11   5 3099.66 526.116   1
   3 -14   3 5215.65 662.545  -2
  -3 -11   6 5215.65 662.545   1
  -3 -11   6 700.855 443.033   1
   3 -14   4 920.827 547.691  -2
  -3 -11   7 920.827 547.691   1
  -3 -11   7 1512.46 445.073   1
   3 -14   5 2847.57 605.942  -2
  -3 -11   8 2847.57 605.942   1
  -3 -11   8 619.303 400.090   1
   3 -14   6 1737.63 597.887  -2
  -3 -11   9 1737.63 597.887   1
  -3 -11   9 1420.04 463.340   1
   3 -14   7 1975.82 608.411  -2
  -3 -11  10 1975.82 608.411   1
  -3 -11  10 682.765 414.512   1
   3 -14   8 1038.36 607.737  -2
  -3 -11  11 1038.36 607.737   1
  -3 -11  11 796.074 434.265   1
   3 -14   9 2233.67 672.398  -2
  -3 -11  12 2233.67 672.398   1
  -3 -11  12 521.679 399.328   1
   3 -14  10 1885.07 658.317  -2
  -3 -11  13 1885.07 658.317   1
  -3 -11  13 2441.76 528.762   1
   3 -14  11 2956.34 479.694  -2
  -3 -11  14 2956.34 479.694   1
   3 -14  12 2355.58 737.905  -2
  -3 -11  15 2355.58 737.905   1
  -3 -11  15 2698.72 550.793   1
  -3 -10  -6 1381.90 368.980   1
   3 -13  -8 3602.37 643.991  -2
  -3 -10  -5 3602.37 643.991   1
  -3 -10  -5 1241.14 620.672   1
   3 -13  -7 4295.38 651.860  -2
  -3 -10  -4 4295.38 651.860   1
  -3 -10  -4 2807.10 641.989   1
   3 -13  -6 4129.63 628.035  -2
  -3 -10  -3 4129.63 628.035   1
  -3 -10  -3 1317.60 535.862   1
   3 -13  -5 2450.49 549.243  -2
  -3 -10  -2 2450.49 549.243   1
  -3 -10  -2 2017.69 559.408   1
  -3 -10  -1 2032.98 327.069   1
  -3 -10   0 1104.17 285.436   1
   3 -13  -2 3556.41 561.814  -2
  -3 -10   1 3556.41 561.814   1
  -3 -10   1 2040.02 477.448   1
   3 -13  -1 5961.93 630.493  -2
  -3 -10   2 5961.93 630.493   1
  -3 -10   2 4477.98 567.022   1
   3 -13   0 4828.20 597.477  -2
  -3 -10   3 4828.20 597.477   1
  -3 -10   3 2100.47 464.428   1
   3 -13   1 1653.40 526.018  -2
  -3 -10   4 1653.40 526.018   1
  -3 -10   4 2001.11 438.203   1
   3 -13   2 5136.30 621.840  -2
  -3 -10   5 5136.30 621.840   1
  -3 -10   5 1376.82 436.792   1
   3 -13   3 2557.52 561.666  -2
  -3 -10   6 2557.52 561.666   1
  -3 -10   6 2267.07 461.571   1
   3 -13   4 3036.60 565.642  -2
  -3 -10   7 3036.60 565.642   1
  -3 -10   7 941.217 396.415   1
   3 -13   5 1507.44 531.667  -2
  -3 -10   8 1507.44 531.667   1
  -3 -10   8 1018.76 392.541   1
   3 -13   6 5453.23 663.718  -2
  -3 -10   9 5453.23 663.718   1
  -3 -10   9 2019.37 443.766   1
   3 -13   7 2829.42 614.518  -2
  -3 -10  10 2829.42 614.518   1
  -3 -10  10 2407.03 458.287   1
   3 -13   8 1402.82 557.970  -2
  -3 -10  11 1402.82 557.970   1
  -3 -10  11 452.440 368.076   1
   3 -13   9 2763.09 618.307  -2
  -3 -10  12 2763.09 618.307   1
  -3 -10  12 1681.04 444.049   1
   3 -13  10 2500.10 645.469  -2
  -3 -10  13 2500.10 645.469   1
  -3 -10  13 790.574 411.968   1
   3 -13  11 1556.90 600.083  -2
  -3 -10  14 1556.90 600.083   1
  -3 -10  14 763.600 405.808   1
  -3 -10  15 514.272 442.823   1
  -3 -10  16 1245.59 458.515   1
  -3  -9  -7 701.924 341.807   1
   3 -12  -9 2165.56 563.628  -2
  -3  -9  -6 2165.56 563.628   1
  -3  -9  -6 755.812 545.984   1
  -3  -9  -5 1061.54 313.077   1
  -3  -9  -4 1181.03 296.822   1
  -3  -9  -3 1028.99 285.591   1
   3 -12  -5 3149.19 535.409  -2
  -3  -9  -2 3149.19 535.409   1
  -3  -9  -2 803.273 443.690   1
   3 -12  -4 2543.89 515.794  -2
  -3  -9  -1 2543.89 515.794   1
  -3  -9  -1 2389.21 476.774   1
   3 -12  -3 4987.04 565.517  -2
  -3  -9   0 4987.04 565.517   1
  -3  -9   0 1167.89 447.825   1
   3 -12  -2 1189.39 446.562  -2
  -3  -9   1 1189.39 446.562   1
  -3  -9   1 1062.43 393.732   1
   3 -12  -1 4008.58 518.296  -2
  -3  -9   2 4008.58 518.296   1
  -3  -9   2 1499.40 409.986   1
   3 -12   0 2943.72 504.346  -2
  -3  -9   3 2943.72 504.346   1
  -3  -9   3 1993.69 418.805   1
   3 -12   1 5090.52 564.093  -2
  -3  -9   4 5090.52 564.093   1
  -3  -9   4 1274.33 379.682   1
   3 -12   2 2776.20 503.963  -2
  -3  -9   5 2776.20 503.963   1
  -3  -9   5 2737.97 434.505   1
   3 -12   3 6831.40 634.958  -2
  -3  -9   6 6831.40 634.958   1
  -3  -9   6 2124.98 418.174   1
  -3  -9   7 2215.59 291.824   1
  -3  -9   8 564.108 253.347   1
   3 -12   6 5179.28 616.431  -2
  -3  -9   9 5179.28 616.431   1
  -3  -9   9 3475.26 474.307   1
   3 -12   7 4624.18 613.992  -2
  -3  -9  10 4624.18 613.992   1
  -3  -9  10 1457.46 374.215   1
   3 -12   8 1347.69 537.336  -2
  -3  -9  11 1347.69 537.336   1
  -3  -9  11 644.951 364.531   1
   3 -12   9 4088.49 620.557  -2
  -3  -9  12 4088.49 620.557   1
  -3  -9  12 1091.63 382.192   1
  -3  -9  13 1749.38 406.334   1
  -3  -9  14 521.744 393.693   1
  -3  -9  15 1387.87 442.797   1
  -3  -9  16 59.3618 365.417   1
  -3  -9  17 1131.43 424.719   1
   3 -11 -12 2289.68 634.999  -2
  -3  -8  -9 2289.68 634.999   1
  -3  -8  -9 631.322 334.536   1
   3 -11 -11 1621.36 409.389  -2
  -3  -8  -8 1621.36 409.389   1
  -3  -8  -8 1189.78 635.818   1
   3 -11 -10 3265.74 412.255  -2
  -3  -8  -7 3265.74 412.255   1
  -3  -8  -7 1939.70 623.028   1
   3 -11  -9 1307.95 479.407  -2
  -3  -8  -6 1307.95 479.407   1
  -3  -8  -6 557.071 278.096   1
   3 -11  -8 2234.29 485.170  -2
  -3  -8  -5 2234.29 485.170   1
  -3  -8  -5 1169.35 295.814   1
   3 -11  -7 2879.72 451.492  -2
  -3  -8  -4 2879.72 451.492   1
  -3  -8  -4 2566.95 334.812   1
   3 -11  -6 4063.36 343.240  -2
  -3  -8  -3 4063.36 343.240   1
  -3  -8  -3 2334.53 511.572   1
   3 -11  -5 4162.34 423.438  -2
  -3  -8  -2 4162.34 423.438   1
  -3  -8  -2 2721.43 315.518   1
   3 -11  -4 11387.2 420.476  -2
  -3  -8  -1 11387.2 420.476   1
  -3  -8  -1 4862.78 547.711   1
  -3  -8   0 4719.24 348.532   1
   3 -11  -2 5163.17 513.500  -2
  -3  -8   1 5163.17 513.500   1
  -3  -8   1 1394.71 378.309   1
   3 -11  -1 2744.20 459.915  -2
  -3  -8   2 2744.20 459.915   1
  -3  -8   2 2050.63 407.431   1
   3 -11   0 6714.48 567.706  -2
  -3  -8   3 6714.48 567.706   1
  -3  -8   3 2452.29 426.479   1
   3 -11   1 4819.87 517.628  -2
  -3  -8   4 4819.87 517.628   1
  -3  -8   4 4141.45 480.579   1
   3 -11   2 8861.91 635.822  -2
  -3  -8   5 8861.91 635.822   1
  -3  -8   5 2385.68 402.850   1
   3 -11   3 10103.7 669.900  -2
  -3  -8   6 10103.7 669.900   1
  -3  -8   6 8972.13 598.588   1
   3 -11   4 8628.83 648.589  -2
  -3  -8   7 8628.83 648.589   1
  -3  -8   7 2746.84 402.320   1
   3 -11   5 2174.08 475.371  -2
  -3  -8   8 2174.08 475.371   1
  -3  -8   8 1986.37 378.449   1
   3 -11   6 4331.88 551.254  -2
  -3  -8   9 4331.88 551.254   1
  -3  -8   9 594.619 341.013   1
  -3  -8  10 2786.05 297.582   1
   3 -11   8 5673.43 633.942  -2
  -3  -8  11 5673.43 633.942   1
  -3  -8  11 1499.74 353.455   1
  -3  -8  12 1987.78 394.790   1
  -3  -8  13 621.875 331.169   1
  -3  -8  14 1166.50 386.673   1
   3 -11  12 2918.82 650.016  -2
  -3  -8  15 2918.82 650.016   1
  -3  -8  15 1024.97 363.098   1
   3 -11  13 2186.96 675.138  -2
  -3  -8  16 2186.96 675.138   1
  -3  -8  16 1593.58 411.137   1
   3 -11  14 2410.19 437.432  -2
  -3  -8  17 2410.19 437.432   1
   3 -11  15 575.746 404.543  -2
  -3  -8  18 575.746 404.543   1
   3 -10 -13 2802.24 446.346  -2
  -3  -7 -10 2802.24 446.346   1
  -3  -7 -10 2113.74 776.951   1
   3 -10 -12 867.487 387.298  -2
  -3  -7  -9 867.487 387.298   1
  -3  -7  -9 48.0077 596.420   1
   3 -10 -11 3078.86 421.848  -2
  -3  -7  -8 3078.86 421.848   1
  -3  -7  -8 479.079 610.596   1
   3 -10 -10 2133.88 540.677  -2
  -3  -7  -7 2133.88 540.677   1
  -3  -7  -7 1353.64 311.074   1
   3 -10  -9 3276.07 517.812  -2
  -3  -7  -6 3276.07 517.812   1
  -3  -7  -6 1597.49 295.809   1
   3 -10  -8 1140.49 306.507  -2
  -3  -7  -5 1140.49 306.507   1
  -3  -7  -5 682.039 224.372   1
   3 -10  -7 3345.55 324.724  -2
  -3  -7  -4 3345.55 324.724   1
  -3  -7  -4 1280.67 225.140   1
   3 -10  -6 1707.34 370.368  -2
  -3  -7  -3 1707.34 370.368   1
  -3  -7  -3 1322.16 176.000   1
  -3  -7  -2 1940.11 270.849   1
  -3  -7  -1 3473.02 290.318   1
   3 -10  -3 12780.8 639.360  -2
  -3  -7   0 12780.8 639.360   1
  -3  -7   0 4523.21 489.860   1
  -3  -7   1 2052.14 254.272   1
   3 -10  -1 4936.93 480.652  -2
  -3  -7   2 4936.93 480.652   1
  -3  -7   2 906.900 326.217   1
   3 -10   0 4487.97 470.040  -2
  -3  -7   3 4487.97 470.040   1
  -3  -7   3 3646.52 431.840   1
  -3  -7   4 636.492 203.308   1
   3 -10   2 1457.12 409.520  -2
  -3  -7   5 1457.12 409.520   1
  -3  -7   5 1744.51 345.055   1
   3 -10   3 14656.3 711.190  -2
  -3  -7   6 14656.3 711.190   1
  -3  -7   6 6160.77 507.446   1
   3 -10   4 4572.24 504.108  -2
  -3  -7   7 4572.24 504.108   1
  -3  -7   7 4496.18 449.499   1
   3 -10   5 5472.35 540.725  -2
  -3  -7   8 5472.35 540.725   1
  -3  -7   8 2080.04 360.016   1
   3 -10   6 1576.19 459.677  -2
  -3  -7   9 1576.19 459.677   1
  -3  -7   9 1522.60 334.563   1
  -3  -7  10 1625.19 328.531   1
  -3  -7  11 1658.85 345.823   1
  -3  -7  12 800.778 343.259   1
   3 -10  10 2421.88 576.067  -2
  -3  -7  13 2421.88 576.067   1
  -3  -7  13 1875.10 367.136   1
   3 -10  11 3295.84 392.918  -2
  -3  -7  14 3295.84 392.918   1
   3 -10  12 1866.81 364.719  -2
  -3  -7  15 1866.81 364.719   1
   3 -10  13 2091.14 666.809  -2
  -3  -7  16 2091.14 666.809   1
  -3  -7  16 490.578 347.651   1
   3 -10  14 2356.91 685.173  -2
  -3  -7  17 2356.91 685.173   1
  -3  -7  17 1537.80 398.676   1
   3 -10  15 1986.76 408.511  -2
  -3  -7  18 1986.76 408.511   1
   3 -10  16 1541.12 759.347  -2
  -3  -7  19 1541.12 759.347   1
  -3  -7  19 587.325 398.732   1
   3  -9 -14 2487.88 448.921  -2
  -3  -6 -11 2487.88 448.921   1
  -3  -6 -11 801.988 718.915   1
   3  -9 -13 3245.05 441.608  -2
  -3  -6 -10 3245.05 441.608   1
  -3  -6 -10 995.522 711.765   1
   3  -9 -12 3081.52 417.203  -2
  -3  -6  -9 3081.52 417.203   1
  -3  -6  -9 1370.63 345.682   1
   3  -9 -11 1989.46 285.099  -2
  -3  -6  -8 1989.46 285.099   1
  -3  -6  -8 1311.35 584.604   1
   3  -9 -10 4231.16 560.763  -2
  -3  -6  -7 4231.16 560.763   1
  -3  -6  -7 2015.05 237.013   1
   3  -9  -9 1191.42 234.858  -2
  -3  -6  -6 1191.42 234.858   1
  -3  -6  -6 1081.07 478.266   1
   3  -9  -8 4281.00 495.084  -2
  -3  -6  -5 4281.00 495.084   1
  -3  -6  -5 2455.84 220.622   1
  -3  -6  -4 4113.66 245.463   1
  -3  -6  -3 3426.01 296.863   1
  -3  -6  -2 1972.95 253.485   1
  -3  -6  -1 3537.68 277.127   1
   3  -9  -3 7649.99 490.671  -2
  -3  -6   0 7649.99 490.671   1
  -3  -6   0 5289.97 496.508   1
   3  -9  -2 15131.6 630.688  -2
  -3  -6   1 15131.6 630.688   1
  -3  -6   1 7162.40 533.185   1
  -3  -6   2 4560.44 293.989   1
   3  -9   0 11172.1 570.314  -2
  -3  -6   3 11172.1 570.314   1
  -3  -6   3 3297.77 396.651   1
   3  -9   1 5612.20 252.997  -2
  -3  -6   4 5612.20 252.997   1
  -3  -6   4 5078.78 428.383   1
   3  -9   2 17823.9 440.953  -2
  -3  -6   5 17823.9 440.953   1
  -3  -6   5 5575.62 313.499   1
   3  -9   3 5549.50 246.224  -2
  -3  -6   6 5549.50 246.224   1
  -3  -6   6 5576.86 444.711   1
  -3  -6   7 3479.44 280.208   1
   3  -9   5 5183.68 508.714  -2
  -3  -6   8 5183.68 508.714   1
  -3  -6   8 5395.57 438.742   1
  -3  -6   9 2181.07 336.626   1
  -3  -6  10 4283.08 418.380   1
  -3  -6  11 1555.30 307.383   1
   3  -9   9 1631.90 496.833  -2
  -3  -6  12 1631.90 496.833   1
  -3  -6  12 1631.47 338.731   1
   3  -9  10 5444.57 650.914  -2
  -3  -6  13 5444.57 650.914   1
  -3  -6  13 1535.30 350.094   1
   3  -9  11 2637.68 602.258  -2
  -3  -6  14 2637.68 602.258   1
  -3  -6  14 2050.23 350.888   1
   3  -9  12 2466.46 372.450  -2
  -3  -6  15 2466.46 372.450   1
   3  -9  13 1664.00 601.369  -2
  -3  -6  16 1664.00 601.369   1
  -3  -6  16 1229.63 369.631   1
   3  -9  14 2431.28 410.278  -2
  -3  -6  17 2431.28 410.278   1
   3  -9  15 686.369 366.133  -2
  -3  -6  18 686.369 366.133   1
   3  -9  16 525.032 743.793  -2
  -3  -6  19 525.032 743.793   1
   3  -8 -15 574.840 309.716  -2
  -3  -5 -12 574.840 309.716   1
   3  -8 -14 1121.37 317.485  -2
  -3  -5 -11 1121.37 317.485   1
  -3  -5 -11 978.704 729.094   1
   3  -8 -13 3742.47 347.178  -2
  -3  -5 -10 3742.47 347.178   1
  -3  -5 -10 1708.12 718.456   1
   3  -8 -12 1473.97 339.127  -2
  -3  -5  -9 1473.97 339.127   1
  -3  -5  -9 1414.36 315.660   1
   3  -8 -11 3684.40 369.501  -2
  -3  -5  -8 3684.40 369.501   1
  -3  -5  -8 1365.22 300.850   1
   3  -8 -10 2552.05 327.190  -2
  -3  -5  -7 2552.05 327.190   1
  -3  -5  -7 1189.32 268.256   1
  -3  -5  -6 875.432 191.572   1
  -3  -5  -5 60.2803 160.550   1
  -3  -5  -4 3528.83 295.761   1
  -3  -5  -3 4960.86 316.466   1
  -3  -5  -2 2086.73 231.861   1
   3  -8  -4 2369.03 331.266  -2
  -3  -5  -1 2369.03 331.266   1
  -3  -5  -1 1901.12 402.465   1
  -3  -5   0 4144.91 263.948   1
  -3  -5   1 1312.39 194.172   1
  -3  -5   2 5225.20 274.072   1
  -3  -5   3 2150.34 213.401   1
  -3  -5   4 1780.30 194.308   1
  -3  -5   5 2299.81 214.367   1
  -3  -5   6 1613.78 203.649   1
  -3  -5   7 5527.41 406.214   1
  -3  -5   8 4669.34 382.261   1
  -3  -5   9 3166.18 339.706   1
   3  -8   7 4299.33 569.039  -2
  -3  -5  10 4299.33 569.039   1
  -3  -5  10 1153.04 283.243   1
   3  -8   8 3210.17 560.046  -2
  -3  -5  11 3210.17 560.046   1
  -3  -5  11 1634.33 284.598   1
   3  -8   9 2959.93 581.058  -2
  -3  -5  12 2959.93 581.058   1
  -3  -5  12 840.228 278.264   1
   3  -8  10 3591.25 633.152  -2
  -3  -5  13 3591.25 633.152   1
  -3  -5  13 2007.58 329.179   1
   3  -8  11 4239.52 653.959  -2
  -3  -5  14 4239.52 653.959   1
  -3  -5  14 895.710 298.779   1
   3  -8  12 1630.81 321.033  -2
  -3  -5  15 1630.81 321.033   1
   3  -8  13 3176.85 378.051  -2
  -3  -5  16 3176.85 378.051   1
   3  -8  14 4157.07 417.816  -2
  -3  -5  17 4157.07 417.816   1
   3  -8  15 2481.41 386.626  -2
  -3  -5  18 2481.41 386.626   1
   3  -8  16 352.169 774.990  -2
  -3  -5  19 352.169 774.990   1
   3  -8  17 596.415 747.300  -2
  -3  -5  20 596.415 747.300   1
   3  -7 -16 2009.91 444.261  -2
  -3  -4 -13 2009.91 444.261   1
  -3  -4 -13 514.785 748.611   1
   3  -7 -15 744.475 322.137  -2
  -3  -4 -12 744.475 322.137   1
  -3  -4 -12 56.3938 717.247   1
   3  -7 -14 1591.11 325.060  -2
  -3  -4 -11 1591.11 325.060   1
  -3  -4 -11 1132.12 766.409   1
   3  -7 -13 1297.60 373.180  -2
  -3  -4 -10 1297.60 373.180   1
  -3  -4 -10 925.959 302.200   1
   3  -7 -12 3164.11 379.331  -2
  -3  -4  -9 3164.11 379.331   1
  -3  -4  -9 2450.82 351.979   1
   3  -7 -11 2066.79 498.450  -2
  -3  -4  -8 2066.79 498.450   1
  -3  -4  -8 876.299 198.599   1
  -3  -4  -7 2370.93 237.540   1
   3  -7  -9 3720.65 441.214  -2
  -3  -4  -6 3720.65 441.214   1
  -3  -4  -6 2571.87 292.559   1
  -3  -4  -5 2936.42 277.798   1
  -3  -4  -4 1042.25 199.093   1
  -3  -4  -3 4741.70 295.236   1
  -3  -4  -2 5794.96 296.947   1
  -3  -4  -1 7187.85 305.743   1
  -3  -4   0 12331.8 369.267   1
  -3  -4   1 5580.38 261.392   1
  -3  -4   2 3025.10 207.180   1
  -3  -4   3 5404.07 259.606   1
  -3  -4   4 11989.8 359.828   1
  -3  -4   5 1606.99 186.012   1
  -3  -4   6 8320.66 435.801   1
  -3  -4   7 17714.5 607.142   1
  -3  -4   8 4530.79 337.422   1
  -3  -4   9 2264.77 237.433   1
   3  -7   7 6936.55 629.805  -2
  -3  -4  10 6936.55 629.805   1
  -3  -4  10 3461.19 325.230   1
   3  -7   8 5061.86 602.970  -2
  -3  -4  11 5061.86 602.970   1
  -3  -4  11 1763.06 275.894   1
   3  -7   9 864.333 496.037  -2
  -3  -4  12 864.333 496.037   1
  -3  -4  12 408.433 241.196   1
   3  -7  10 5136.86 364.435  -2
  -3  -4  13 5136.86 364.435   1
   3  -7  11 3507.06 666.967  -2
  -3  -4  14 3507.06 666.967   1
  -3  -4  14 2218.24 320.436   1
   3  -7  12 4248.67 384.391  -2
  -3  -4  15 4248.67 384.391   1
   3  -7  13 1721.38 334.405  -2
  -3  -4  16 1721.38 334.405   1
   3  -7  14 3547.61 389.541  -2
  -3  -4  17 3547.61 389.541   1
   3  -7  15 1040.47 711.422  -2
  -3  -4  18 1040.47 711.422   1
   3  -7  16 2333.09 791.970  -2
  -3  -4  19 2333.09 791.970   1
   3  -7  17 854.987 776.995  -2
  -3  -4  20 854.987 776.995   1
   3  -6 -17 1384.40 415.548  -2
  -3  -3 -14 1384.40 415.548   1
   3  -6 -16 1451.62 396.485  -2
  -3  -3 -13 1451.62 396.485   1
   3  -6 -15 2193.17 397.098  -2
  -3  -3 -12 2193.17 397.098   1
   3  -6 -14 1165.42 292.580  -2
  -3  -3 -11 1165.42 292.580   1
  -3  -3 -11 239.554 555.445   1
   3  -6 -13 3671.86 389.994  -2
  -3  -3 -10 3671.86 389.994   1
  -3  -3 -10 2165.97 354.793   1
   3  -6 -12 1671.19 312.910  -2
  -3  -3  -9 1671.19 312.910   1
  -3  -3  -9 823.221 532.053   1
  -3  -3  -8 3622.58 270.952   1
   3  -6 -10 5700.89 528.141  -2
  -3  -3  -7 5700.89 528.141   1
  -3  -3  -7 4383.61 344.158   1
  -3  -3  -6 3786.85 313.319   1
  -3  -3  -5 830.760 207.308   1
  -3  -3  -4 3422.84 261.168   1
  -3  -3  -3 790.788 164.308   1
  -3  -3  -2 7185.68 295.837   1
  -3  -3  -1 4174.43 229.754   1
  -3  -3   0 6186.71 252.942   1
  -3  -3   1 7357.00 263.739   1
  -3  -3   2 10398.8 303.506   1
  -3  -3   3 892.399 143.949   1
  -3  -3   4 3443.60 203.613   1
  -3  -3   5 1547.88 238.484   1
  -3  -3   6 3750.79 303.965   1
  -3  -3   7 7311.62 302.629   1
   3  -6   5 16330.4 751.614  -2
  -3  -3   8 16330.4 751.614   1
  -3  -3   8 9156.91 417.096   1
   3  -6   6 2616.98 481.948  -2
  -3  -3   9 2616.98 481.948   1
  -3  -3   9 2108.81 252.532   1
   3  -6   7 8709.35 715.118  -2
  -3  -3  10 8709.35 715.118   1
  -3  -3  10 991.564 220.562   1
   3  -6   8 4920.99 601.975  -2
  -3  -3  11 4920.99 601.975   1
  -3  -3  11 3846.07 318.628   1
   3  -6   9 2508.82 281.451  -2
  -3  -3  12 2508.82 281.451   1
   3  -6  10 2215.65 284.143  -2
  -3  -3  13 2215.65 284.143   1
   3  -6  11 7270.67 409.127  -2
  -3  -3  14 7270.67 409.127   1
   3  -6  12 2993.44 333.241  -2
  -3  -3  15 2993.44 333.241   1
   3  -6  13 3212.19 359.781  -2
  -3  -3  16 3212.19 359.781   1
   3  -6  14 1409.28 629.449  -2
  -3  -3  17 1409.28 629.449   1
   3  -6  15 1817.10 786.407  -2
  -3  -3  18 1817.10 786.407   1
   3  -6  16 1370.85 779.797  -2
  -3  -3  19 1370.85 779.797   1
   3  -6  17 1661.19 813.137  -2
  -3  -3  20 1661.19 813.137   1
  -3  -2 -15 739.441 313.847   1
   3  -5 -17 502.335 331.168  -2
  -3  -2 -14 502.335 331.168   1
   3  -5 -16 1837.11 403.532  -2
  -3  -2 -13 1837.11 403.532   1
   3  -5 -15 1327.19 345.439  -2
  -3  -2 -12 1327.19 345.439   1
   3  -5 -14 2359.12 393.657  -2
  -3  -2 -11 2359.12 393.657   1
  -3  -2 -11 1636.35 695.394   1
   3  -5 -13 5223.80 555.523  -2
  -3  -2 -10 5223.80 555.523   1
  -3  -2 -10 2550.46 372.703   1
   3  -5 -12 5353.81 517.616  -2
  -3  -2  -9 5353.81 517.616   1
  -3  -2  -9 2677.56 355.679   1
   3  -5 -11 1847.78 376.645  -2
  -3  -2  -8 1847.78 376.645   1
  -3  -2  -8 693.078 277.458   1
  -3  -2  -7 3098.03 303.559   1
  -3  -2  -6 5277.70 335.449   1
  -3  -2  -5 3542.81 266.426   1
  -3  -2  -4 2473.38 216.744   1
  -3  -2  -3 8224.31 311.358   1
  -3  -2  -2 6719.68 263.790   1
  -3  -2  -1 2274.20 169.086   1
  -3  -2   0 7705.65 188.797   1
  -3  -2   1 18951.7 358.422   1
  -3  -2   2 2682.92 165.589   1
  -3  -2   3 5021.83 210.503   1
  -3  -2   4 6839.24 349.420   1
  -3  -2   5 5548.83 316.196   1
  -3  -2   6 2776.86 199.782   1
  -3  -2   7 3320.48 211.216   1
  -3  -2   8 11020.5 336.293   1
   3  -5   6 24094.5 907.558  -2
  -3  -2   9 24094.5 907.558   1
  -3  -2   9 10601.8 408.706   1
   3  -5   7 3711.93 548.075  -2
  -3  -2  10 3711.93 548.075   1
  -3  -2  10 2041.27 234.578   1
   3  -5   8 6775.60 684.216  -2
  -3  -2  11 6775.60 684.216   1
  -3  -2  11 1979.06 240.299   1
   3  -5   9 1025.76 232.757  -2
  -3  -2  12 1025.76 232.757   1
   3  -5  10 2308.45 273.656  -2
  -3  -2  13 2308.45 273.656   1
   3  -5  11 2316.22 286.999  -2
  -3  -2  14 2316.22 286.999   1
   3  -5  12 6864.00 392.485  -2
  -3  -2  15 6864.00 392.485   1
   3  -5  13 2188.12 319.508  -2
  -3  -2  16 2188.12 319.508   1
   3  -5  14 1587.59 705.387  -2
  -3  -2  17 1587.59 705.387   1
   3  -5  15 1365.81 752.684  -2
  -3  -2  18 1365.81 752.684   1
   3  -5  16 1428.17 759.716  -2
  -3  -2  19 1428.17 759.716   1
   3  -5  17 1238.26 805.247  -2
  -3  -2  20 1238.26 805.247   1
   3  -4 -18 1543.20 470.560  -2
  -3  -1 -15 1543.20 470.560   1
   3  -4 -17 3129.23 440.195  -2
  -3  -1 -14 3129.23 440.195   1
   3  -4 -16 1504.01 370.925  -2
  -3  -1 -13 1504.01 370.925   1
   3  -4 -15 1441.61 340.320  -2
  -3  -1 -12 1441.61 340.320   1
   3  -4 -14 715.289 304.378  -2
  -3  -1 -11 715.289 304.378   1
  -3  -1 -10 1391.68 318.047   1
   3  -4 -12 3170.79 779.978  -2
  -3  -1  -9 3170.79 779.978   1
  -3  -1  -9 1040.14 376.014   1
   3  -4 -11 7171.72 387.031  -2
  -3  -1  -8 7171.72 387.031   1
  -3  -1  -8 4670.39 743.070   1
  -3  -1  -7 183.179 205.882   1
  -3  -1  -6 3958.50 295.220   1
  -3  -1  -5 973.748 187.811   1
  -3  -1  -4 3870.94 242.836   1
  -3  -1  -3 2233.82 187.164   1
  -3  -1  -2 10059.2 290.597   1
  -3  -1  -1 552.275 90.3076   1
  -3  -1   0 7791.11 169.263   1
  -3  -1   1 10387.0 169.894   1
  -3  -1   2 6605.63 158.750   1
  -3  -1   3 4073.72 183.354   1
  -3  -1   4 19650.1 356.591   1
  -3  -1   5 12039.5 320.437   1
  -3  -1   6 488.669 128.995   1
   3  -4   4 5781.76 512.584  -2
  -3  -1   7 5781.76 512.584   1
  -3  -1   7 5163.21 259.509   1
   3  -4   5 21319.6 842.325  -2
  -3  -1   8 21319.6 842.325   1
  -3  -1   8 7650.13 304.306   1
   3  -4   6 7974.75 617.798  -2
  -3  -1   9 7974.75 617.798   1
  -3  -1   9 6301.90 292.428   1
   3  -4   7 19000.4 426.975  -2
  -3  -1  10 19000.4 426.975   1
   3  -4   8 15194.6 409.242  -2
  -3  -1  11 15194.6 409.242   1
   3  -4   9 4293.61 284.547  -2
  -3  -1  12 4293.61 284.547   1
   3  -4  10 1632.13 244.299  -2
  -3  -1  13 1632.13 244.299   1
   3  -4  11 4453.50 315.683  -2
  -3  -1  14 4453.50 315.683   1
   3  -4  12 3111.75 315.474  -2
  -3  -1  15 3111.75 315.474   1
   3  -4  13 6047.04 858.788  -2
  -3  -1  16 6047.04 858.788   1
   3  -4  14 3724.73 792.159  -2
  -3  -1  17 3724.73 792.159   1
   3  -4  15 1333.64 789.633  -2
  -3  -1  18 1333.64 789.633   1
   3  -4  16 1122.88 777.054  -2
  -3  -1  19 1122.88 777.054   1
   3  -4  17 2035.90 845.768  -2
  -3  -1  20 2035.90 845.768   1
  -3   0 -16 459.007 341.977   1
   3  -3 -18 2111.95 480.273  -2
  -3   0 -15 2111.95 480.273   1
   3  -3 -17 843.908 419.810  -2
  -3   0 -14 843.908 419.810   1
   3  -3 -16 3428.99 410.257  -2
  -3   0 -13 3428.99 410.257   1
   3  -3 -15 1188.81 333.318  -2
  -3   0 -12 1188.81 333.318   1
   3  -3 -14 2728.53 464.317  -2
  -3   0 -11 2728.53 464.317   1
   3  -3 -13 2629.00 425.162  -2
  -3   0 -10 2629.00 425.162   1
  -3   0  -9 7261.84 476.463   1
   3  -3 -11 5772.47 853.419  -2
  -3   0  -8 5772.47 853.419   1
  -3   0  -7 6012.88 769.950   1
  -3   0  -6 6899.33 705.951   1
  -3   0  -5 9775.01 361.263   1
  -3   0  -4 877.422 157.502   1
  -3   0  -3 8122.93 275.933   1
  -3   0  -2 8324.32 247.610   1
  -3   0  -1 22174.1 327.673   1
  -3   0   0 11250.0 199.518   1
  -3   0   1 5456.63 132.964   1
  -3   0   2 8985.67 153.999   1
  -3   0   3 12698.5 262.262   1
  -3   0   4 1010.07 105.796   1
  -3   0   5 5368.11 170.811   1
  -3   0   6 961.286 124.835   1
  -3   0   7 6293.94 208.984   1
   3  -3   5 4078.53 495.508  -2
  -3   0   8 4078.53 495.508   1
  -3   0   8 4035.36 195.602   1
   3  -3   6 13823.6 752.138  -2
  -3   0   9 13823.6 752.138   1
  -3   0   9 7697.26 262.006   1
   3  -3   7 1882.53 180.970  -2
  -3   0  10 1882.53 180.970   1
   3  -3   8 7693.29 293.384  -2
  -3   0  11 7693.29 293.384   1
   3  -3   9 1343.72 203.853  -2
  -3   0  12 1343.72 203.853   1
   3  -3  10 2203.92 237.864  -2
  -3   0  13 2203.92 237.864   1
   3  -3  11 477.702 213.889  -2
  -3   0  14 477.702 213.889   1
   3  -3  12 4213.58 754.545  -2
  -3   0  15 4213.58 754.545   1
   3  -3  13 2968.46 713.895  -2
  -3   0  16 2968.46 713.895   1
   3  -3  14 3034.19 777.735  -2
  -3   0  17 3034.19 777.735   1
   3  -3  15 2436.78 808.471  -2
  -3   0  18 2436.78 808.471   1
   3  -3  16 1550.81 819.511  -2
  -3   0  19 1550.81 819.511   1
   3  -3  17 471.338 849.989  -2
  -3   0  20 471.338 849.989   1
   3  -2 -19 2168.86 497.042  -2
  -3   1 -16 2168.86 497.042   1
   3  -2 -18 1532.72 455.285  -2
  -3   1 -15 1532.72 455.285   1
   3  -2 -17 3143.39 461.436  -2
  -3   1 -14 3143.39 461.436   1
   3  -2 -16 715.863 377.698  -2
  -3   1 -13 715.863 377.698   1
   3  -2 -15 1943.73 523.088  -2
  -3   1 -12 1943.73 523.088   1
   3  -2 -14 989.929 400.118  -2
  -3   1 -11 989.929 400.118   1
   3  -2 -13 2297.07 788.500  -2
  -3   1 -10 2297.07 788.500   1
  -3   1 -10 998.528 377.308   1
   3  -2 -12 5896.45 922.399  -2
  -3   1  -9 5896.45 922.399   1
  -3   1  -9 2294.10 401.119   1
   3  -2 -11 8395.98 947.509  -2
  -3   1  -8 8395.98 947.509   1
   3  -2 -10 1808.50 691.879  -2
  -3   1  -7 1808.50 691.879   1
  -3   1  -6 7171.42 709.815   1
  -3   1  -5 6188.05 292.605   1
  -3   1  -4 1358.42 183.695   1
  -3   1  -3 323.319 148.166   1
  -3   1  -2 7503.58 300.754   1
  -3   1  -1 3395.14 223.824   1
  -3   1   0 9052.99 312.574   1
  -3   1   1 12269.6 542.105   1
  -3   1   2 18462.2 171.364   1
  -3   1   3 1305.52 75.9172   1
  -3   1   4 6301.00 105.404   1
  -3   1   5 4407.77 99.1851   1
   3  -2   3 25044.7 810.137  -2
  -3   1   6 25044.7 810.137   1
  -3   1   6 13176.8 177.137   1
  -3   1   7 6589.77 151.339   1
   3  -2   5 12560.2 374.040  -2
  -3   1   8 12560.2 374.040   1
  -3   1   8 5346.78 165.341   1
   3  -2   6 10257.7 226.612  -2
  -3   1   9 10257.7 226.612   1
   3  -2   7 16391.8 307.875  -2
  -3   1  10 16391.8 307.875   1
   3  -2   8 7502.54 252.922  -2
  -3   1  11 7502.54 252.922   1
   3  -2   9 7898.74 287.736  -2
  -3   1  12 7898.74 287.736   1
   3  -2  10 3075.47 240.266  -2
  -3   1  13 3075.47 240.266   1
   3  -2  11 3395.56 691.222  -2
  -3   1  14 3395.56 691.222   1
   3  -2  12 3002.76 700.163  -2
  -3   1  15 3002.76 700.163   1
   3  -2  13 3497.28 761.108  -2
  -3   1  16 3497.28 761.108   1
   3  -2  14 1793.82 750.387  -2
  -3   1  17 1793.82 750.387   1
   3  -2  15 1910.95 784.535  -2
  -3   1  18 1910.95 784.535   1
   3  -2  16 1278.27 827.682  -2
  -3   1  19 1278.27 827.682   1
   3  -1 -19 1282.88 456.480  -2
  -3   2 -16 1282.88 456.480   1
   3  -1 -18 2385.24 458.733  -2
  -3   2 -15 2385.24 458.733   1
   3  -1 -17 1513.07 416.815  -2
  -3   2 -14 1513.07 416.815   1
   3  -1 -16 4495.01 458.623  -2
  -3   2 -13 4495.01 458.623   1
   3  -1 -15 1941.36 521.290  -2
  -3   2 -12 1941.36 521.290   1
   3  -1 -14 1990.18 514.232  -2
  -3   2 -11 1990.18 514.232   1
   3  -1 -13 2906.21 501.708  -2
  -3   2 -10 2906.21 501.708   1
   3  -1 -12 10496.9 1000.45  -2
  -3   2  -9 10496.9 1000.45   1
  -3   2  -9 4425.71 488.741   1
   3  -1 -11 7456.37 940.608  -2
  -3   2  -8 7456.37 940.608   1
  -3   2  -8 3302.67 256.915   1
  -3   2  -7 8570.56 334.367   1
   3  -1  -9 8917.53 835.903  -2
  -3   2  -6 8917.53 835.903   1
  -3   2  -6 2259.68 228.498   1
   3  -1  -8 13485.2 886.882  -2
  -3   2  -5 13485.2 886.882   1
  -3   2  -5 7679.60 356.849   1
  -3   2  -4 5871.43 286.885   1
  -3   2  -3 12880.1 388.483   1
  -3   2  -2 4675.36 254.744   1
  -3   2  -1 7654.00 304.746   1
  -3   2   0 3410.33 221.181   1
  -3   2   1 29485.8 797.095   1
  -3   2   2 12888.3 207.512   1
  -3   2   3 7123.16 127.751   1
  -3   2   4 4197.17 93.9099   1
  -3   2   5 5321.59 124.291   1
  -3   2   6 982.655 97.0536   1
   3  -1   4 3203.71 238.402  -2
  -3   2   7 3203.71 238.402   1
  -3   2   7 2244.82 225.149   1
   3  -1   5 11150.3 670.531  -2
  -3   2   8 11150.3 670.531   1
  -3   2   8 5686.21 234.419   1
   3  -1   6 12905.3 388.117  -2
  -3   2   9 12905.3 388.117   1
   3  -1   7 1481.55 95.8946  -2
  -3   2  10 1481.55 95.8946   1
   3  -1   8 7814.40 221.170  -2
  -3   2  11 7814.40 221.170   1
   3  -1   9 4592.04 223.836  -2
  -3   2  12 4592.04 223.836   1
   3  -1  10 3212.91 647.807  -2
  -3   2  13 3212.91 647.807   1
   3  -1  11 465.604 597.596  -2
  -3   2  14 465.604 597.596   1
   3  -1  12 2300.72 706.391  -2
  -3   2  15 2300.72 706.391   1
   3  -1  13 1303.32 723.955  -2
  -3   2  16 1303.32 723.955   1
   3  -1  14 2809.79 797.833  -2
  -3   2  17 2809.79 797.833   1
   3  -1  15 1540.84 771.565  -2
  -3   2  18 1540.84 771.565   1
   3  -1  16 1921.11 863.828  -2
  -3   2  19 1921.11 863.828   1
   3   0 -20 1073.65 685.483  -2
  -3   3 -17 1073.65 685.483   1
  -3   3 -17 165.974 495.915   1
   3   0 -19 923.683 429.980  -2
  -3   3 -16 923.683 429.980   1
   3   0 -18 2391.96 461.405  -2
  -3   3 -15 2391.96 461.405   1
   3   0 -17 3008.58 438.056  -2
  -3   3 -14 3008.58 438.056   1
   3   0 -16 1834.07 569.598  -2
  -3   3 -13 1834.07 569.598   1
   3   0 -15 3303.52 560.610  -2
  -3   3 -12 3303.52 560.610   1
   3   0 -14 204.204 476.615  -2
  -3   3 -11 204.204 476.615   1
  -3   3 -11-61.0183 140.680   1
   3   0 -13 2380.70 510.541  -2
  -3   3 -10 2380.70 510.541   1
  -3   3 -10 819.574 180.039   1
  -3   3  -9 1042.00 181.247   1
  -3   3  -8 5128.16 308.814   1
  -3   3  -7 265.803 164.686   1
  -3   3  -6 6423.43 339.766   1
  -3   3  -5 705.819 160.045   1
  -3   3  -4 12237.2 442.439   1
  -3   3  -3 1507.33 179.936   1
  -3   3  -2 6601.78 291.774   1
  -3   3  -1 1921.02 221.867   1
  -3   3   1 3852.03 157.679   1
  -3   3   2 15180.1 313.751   1
  -3   3   3 13880.5 246.271   1
   3   0   1 36802.1 732.079  -2
  -3   3   4 36802.1 732.079   1
  -3   3   4 14708.3 248.486   1
   3   0   2 15107.2 385.406  -2
  -3   3   5 15107.2 385.406   1
  -3   3   5 6713.69 295.868   1
   3   0   3 15652.2 398.397  -2
  -3   3   6 15652.2 398.397   1
  -3   3   6 7698.18 341.216   1
   3   0   4 2801.73 233.410  -2
  -3   3   7 2801.73 233.410   1
  -3   3   7 2153.55 237.910   1
   3   0   5 15571.8 417.395  -2
  -3   3   8 15571.8 417.395   1
  -3   3   8 6731.21 371.551   1
   3   0   6 14580.5 411.777  -2
  -3   3   9 14580.5 411.777   1
  -3   3   9 6595.19 400.367   1
   3   0   7 12931.8 402.025  -2
  -3   3  10 12931.8 402.025   1
  -3   3  10 6686.98 428.182   1
   3   0   8 4433.92 99.2183  -2
  -3   3  11 4433.92 99.2183   1
   3   0   9 10226.2 372.560  -2
  -3   3  12 10226.2 372.560   1
   3   0  10 2133.25 600.974  -2
  -3   3  13 2133.25 600.974   1
   3   0  11 2695.50 667.099  -2
  -3   3  14 2695.50 667.099   1
   3   0  12 1613.68 682.001  -2
  -3   3  15 1613.68 682.001   1
   3   0  13 3217.96 726.606  -2
  -3   3  16 3217.96 726.606   1
   3   0  14 367.978 783.544  -2
  -3   3  17 367.978 783.544   1
   3   0  15 2090.20 855.891  -2
  -3   3  18 2090.20 855.891   1
   3   0  16 766.552 826.239  -2
  -3   3  19 766.552 826.239   1
   3   1 -20 1615.21 472.762  -2
  -3   4 -17 1615.21 472.762   1
   3   1 -19 809.245 428.389  -2
  -3   4 -16 809.245 428.389   1
   3   1 -18 1591.78 431.854  -2
  -3   4 -15 1591.78 431.854   1
   3   1 -17 2011.01 411.849  -2
  -3   4 -14 2011.01 411.849   1
   3   1 -16 4001.01 618.973  -2
  -3   4 -13 4001.01 618.973   1
   3   1 -15 1616.55 493.805  -2
  -3   4 -12 1616.55 493.805   1
   3   1 -14 3414.35 545.006  -2
  -3   4 -11 3414.35 545.006   1
  -3   4 -11 3460.80 270.578   1
  -3   4 -10 449.089 154.890   1
  -3   4  -9 4053.39 292.615   1
  -3   4  -8 6087.16 342.554   1
  -3   4  -7 11883.8 452.309   1
  -3   4  -6 1206.42 208.371   1
  -3   4  -5 12434.3 464.043   1
  -3   4  -4 689.192 189.998   1
  -3   4  -3 981.056 191.167   1
  -3   4  -2 7276.87 367.407   1
  -3   4  -1 24090.8 359.277   1
  -3   4   0 3921.78 121.028   1
  -3   4   1 4130.65 108.193   1
  -3   4   2 5559.73 114.471   1
  -3   4   3 12429.2 187.624   1
   3   1   1 495.384 241.074  -2
  -3   4   4 495.384 241.074   1
  -3   4   4 100.303 224.028   1
   3   1   2 14587.0 507.532  -2
  -3   4   5 14587.0 507.532   1
  -3   4   5 3883.16 212.882   1
   3   1   3 4434.94 254.192  -2
  -3   4   6 4434.94 254.192   1
  -3   4   6 2456.81 241.710   1
   3   1   4 6347.62 298.205  -2
  -3   4   7 6347.62 298.205   1
  -3   4   7 2544.03 255.974   1
   3   1   5 2805.59 244.576  -2
  -3   4   8 2805.59 244.576   1
  -3   4   8 1623.13 247.856   1
   3   1   6 7896.22 277.692  -2
  -3   4   9 7896.22 277.692   1
   3   1   7 1943.98 203.709  -2
  -3   4  10 1943.98 203.709   1
   3   1   8 7362.28 288.021  -2
  -3   4  11 7362.28 288.021   1
   3   1   9 2941.62 265.156  -2
  -3   4  12 2941.62 265.156   1
   3   1  10 3378.03 675.925  -2
  -3   4  13 3378.03 675.925   1
   3   1  11 589.987 662.075  -2
  -3   4  14 589.987 662.075   1
   3   1  12 1237.13 681.192  -2
  -3   4  15 1237.13 681.192   1
   3   1  13 2396.02 750.723  -2
  -3   4  16 2396.02 750.723   1
   3   1  14 3287.39 844.122  -2
  -3   4  17 3287.39 844.122   1
   3   1  15 1543.27 869.487  -2
  -3   4  18 1543.27 869.487   1
   3   2 -20 1238.07 442.134  -2
  -3   5 -17 1238.07 442.134   1
   3   2 -19 1403.53 434.038  -2
  -3   5 -16 1403.53 434.038   1
   3   2 -18 1292.59 422.552  -2
  -3   5 -15 1292.59 422.552   1
   3   2 -17 1663.74 401.379  -2
  -3   5 -14 1663.74 401.379   1
   3   2 -16 1232.58 521.530  -2
  -3   5 -13 1232.58 521.530   1
   3   2 -15 5286.02 617.262  -2
  -3   5 -12 5286.02 617.262   1
   3   2 -14 2446.73 495.261  -2
  -3   5 -11 2446.73 495.261   1
  -3   5 -11 185.587 171.155   1
   3   2 -13 2026.82 462.378  -2
  -3   5 -10 2026.82 462.378   1
  -3   5 -10 896.137 196.934   1
  -3   5  -9 460.056 177.045   1
  -3   5  -8 3024.97 280.386   1
  -3   5  -7 1092.72 207.695   1
  -3   5  -6 12095.7 484.037   1
  -3   5  -5 4696.71 321.751   1
  -3   5  -4 7231.95 387.211   1
  -3   5  -3 775.270 121.801   1
  -3   5  -2 6904.46 277.973   1
  -3   5  -1 4780.62 232.868   1
  -3   5   0 10994.3 244.576   1
  -3   5   1 2298.76 106.799   1
  -3   5   2 22328.0 274.001   1
   3   2   0 12944.8 362.622  -2
  -3   5   3 12944.8 362.622   1
  -3   5   3 4538.39 152.146   1
   3   2   1 9016.62 323.821  -2
  -3   5   4 9016.62 323.821   1
  -3   5   4 6096.18 207.893   1
   3   2   2 12468.0 492.684  -2
  -3   5   5 12468.0 492.684   1
  -3   5   5 5433.88 145.145   1
   3   2   3 14926.7 525.797  -2
  -3   5   6 14926.7 525.797   1
  -3   5   6 7154.96 147.920   1
   3   2   4 4312.62 267.803  -2
  -3   5   7 4312.62 267.803   1
  -3   5   7 1296.27 240.103   1
   3   2   5 7036.21 268.942  -2
  -3   5   8 7036.21 268.942   1
   3   2   6 8386.58 359.231  -2
  -3   5   9 8386.58 359.231   1
  -3   5   9 4069.32 388.139   1
   3   2   7 9589.80 321.143  -2
  -3   5  10 9589.80 321.143   1
  -3   5  10 6197.20 162.521   1
   3   2   8 1933.47 244.093  -2
  -3   5  11 1933.47 244.093   1
  -3   5  11 1612.62 467.436   1
   3   2   9 4325.59 267.855  -2
  -3   5  12 4325.59 267.855   1
   3   2  10 5318.06 468.153  -2
  -3   5  13 5318.06 468.153   1
   3   2  11 2873.90 717.694  -2
  -3   5  14 2873.90 717.694   1
   3   2  12 2628.28 737.214  -2
  -3   5  15 2628.28 737.214   1
   3   2  13 3230.41 769.294  -2
  -3   5  16 3230.41 769.294   1
   3   2  14 1421.02 820.317  -2
  -3   5  17 1421.02 820.317   1
   3   3 -20 1439.94 472.911  -2
  -3   6 -17 1439.94 472.911   1
   3   3 -19 923.642 398.956  -2
  -3   6 -16 923.642 398.956   1
   3   3 -18 1365.11 412.359  -2
  -3   6 -15 1365.11 412.359   1
   3   3 -17 1789.36 584.077  -2
  -3   6 -14 1789.36 584.077   1
   3   3 -16 2654.63 565.774  -2
  -3   6 -13 2654.63 565.774   1
   3   3 -15 2497.68 541.220  -2
  -3   6 -12 2497.68 541.220   1
   3   3 -14 6029.02 600.014  -2
  -3   6 -11 6029.02 600.014   1
   3   3 -13 2272.57 456.111  -2
  -3   6 -10 2272.57 456.111   1
   3   3 -12 2210.88 427.132  -2
  -3   6  -9 2210.88 427.132   1
  -3   6  -5 8376.85 392.652   1
  -3   6  -4 957.403 190.339   1
  -3   6  -3 4776.59 286.641   1
  -3   6  -2 1589.46 199.883   1
  -3   6  -1 2931.48 233.577   1
  -3   6   0 215.843 143.021   1
  -3   6   1 11275.0 269.272   1
   3   3  -1 11332.6 391.484  -2
  -3   6   2 11332.6 391.484   1
  -3   6   2 2832.17 167.898   1
   3   3   0 14120.2 276.353  -2
  -3   6   3 14120.2 276.353   1
  -3   6   3 7962.31 325.981   1
   3   3   1 7804.90 218.997  -2
  -3   6   4 7804.90 218.997   1
  -3   6   4 3440.91 257.960   1
   3   3   2 11835.6 385.998  -2
  -3   6   5 11835.6 385.998   1
  -3   6   5 3622.61 165.512   1
   3   3   3 1695.62 279.593  -2
  -3   6   6 1695.62 279.593   1
  -3   6   6 887.010 103.288   1
   3   3   4 6721.73 392.069  -2
  -3   6   7 6721.73 392.069   1
  -3   6   7 2252.07 129.903   1
   3   3   5 2164.60 235.175  -2
  -3   6   8 2164.60 235.175   1
  -3   6   8 1081.75 117.711   1
   3   3   6 7620.89 366.767  -2
  -3   6   9 7620.89 366.767   1
  -3   6   9 3826.79 401.405   1
   3   3   7 6407.78 300.686  -2
  -3   6  10 6407.78 300.686   1
   3   3   8 7150.15 350.524  -2
  -3   6  11 7150.15 350.524   1
   3   3   9 1201.84 238.492  -2
  -3   6  12 1201.84 238.492   1
   3   3  10 4005.83 576.937  -2
  -3   6  13 4005.83 576.937   1
   3   3  13 788.924 789.082  -2
  -3   6  16 788.924 789.082   1
   3   3  14 1040.50 776.773  -2
  -3   6  17 1040.50 776.773   1
   3   4 -20 568.620 442.757  -2
  -3   7 -17 568.620 442.757   1
   3   4 -19 1073.95 421.753  -2
  -3   7 -16 1073.95 421.753   1
   3   4 -18 1060.56 381.906  -2
  -3   7 -15 1060.56 381.906   1
   3   4 -17 2621.39 584.173  -2
  -3   7 -14 2621.39 584.173   1
   3   4 -16 893.753 506.205  -2
  -3   7 -13 893.753 506.205   1
   3   4 -15 2628.29 507.222  -2
  -3   7 -12 2628.29 507.222   1
  -3   7 -12 1872.10 282.428   1
  -3   7 -11 541.425 184.054   1
  -3   7 -10 3037.49 255.059   1
  -3   7  -9 599.507 188.274   1
  -3   7  -8 3411.30 323.673   1
  -3   7  -7 1560.43 186.162   1
  -3   7  -6 5444.30 371.003   1
   3   4  -8 4553.88 352.651  -2
  -3   7  -5 4553.88 352.651   1
  -3   7  -4 24679.1 665.749   1
  -3   7  -3 2113.15 256.305   1
  -3   7  -2 7522.56 379.204   1
  -3   7  -1 4448.12 306.685   1
  -3   7   0 11233.8 424.365   1
   3   4  -2 4077.90 291.823  -2
  -3   7   1 4077.90 291.823   1
  -3   7   1 1030.31 196.385   1
   3   4  -1 17996.0 537.694  -2
  -3   7   2 17996.0 537.694   1
  -3   7   2 12603.4 434.708   1
   3   4   0 18596.3 606.082  -2
  -3   7   3 18596.3 606.082   1
  -3   7   3 4919.31 308.208   1
   3   4   1 21072.7 699.379  -2
  -3   7   4 21072.7 699.379   1
  -3   7   4 14856.7 505.802   1
   3   4   2 7907.21 347.618  -2
  -3   7   5 7907.21 347.618   1
  -3   7   5 2699.09 181.007   1
   3   4   3 8275.69 252.551  -2
  -3   7   6 8275.69 252.551   1
  -3   7   6 4321.78 379.396   1
   3   4   4 2557.27 274.691  -2
  -3   7   7 2557.27 274.691   1
  -3   7   7 1378.89 299.530   1
   3   4   5 5113.82 326.396  -2
  -3   7   8 5113.82 326.396   1
  -3   7   8 2908.17 370.030   1
   3   4   6 4070.38 378.222  -2
  -3   7   9 4070.38 378.222   1
  -3   7   9 2006.27 272.139   1
   3   4   7 6235.14 349.794  -2
  -3   7  10 6235.14 349.794   1
   3   4   8 2228.60 278.210  -2
  -3   7  11 2228.60 278.210   1
   3   4   9 3880.49 571.038  -2
  -3   7  12 3880.49 571.038   1
   3   4  10 2891.24 574.928  -2
  -3   7  13 2891.24 574.928   1
   3   4  11 1792.12 592.266  -2
  -3   7  14 1792.12 592.266   1
  -3   8 -17 851.938 335.654   1
   3   5 -19 1238.76 422.150  -2
  -3   8 -16 1238.76 422.150   1
   3   5 -18 1801.59 413.453  -2
  -3   8 -15 1801.59 413.453   1
   3   5 -17 4056.09 648.875  -2
  -3   8 -14 4056.09 648.875   1
   3   5 -16 2347.78 553.025  -2
  -3   8 -13 2347.78 553.025   1
  -3   8 -12 116.592 188.483   1
  -3   8 -11 3229.79 275.592   1
  -3   8 -10 73.3179 185.238   1
  -3   8  -9 2296.54 242.245   1
   3   5 -11 3408.73 427.443  -2
  -3   8  -8 3408.73 427.443   1
   3   5 -10 4285.49 440.146  -2
  -3   8  -7 4285.49 440.146   1
   3   5  -9 2481.83 362.759  -2
  -3   8  -6 2481.83 362.759   1
   3   5  -8 11258.5 538.009  -2
  -3   8  -5 11258.5 538.009   1
  -3   8  -4 1053.29 246.547   1
  -3   8  -3 1701.18 264.175   1
  -3   8  -2 496.406 215.574   1
  -3   8  -1 3208.68 299.585   1
  -3   8   0 2200.67 256.193   1
   3   5  -2 8147.93 356.288  -2
  -3   8   1 8147.93 356.288   1
  -3   8   1 4127.21 314.200   1
   3   5  -1 2072.09 285.605  -2
  -3   8   2 2072.09 285.605   1
  -3   8   2 656.421 202.853   1
   3   5   0 9805.45 482.651  -2
  -3   8   3 9805.45 482.651   1
  -3   8   3 6136.25 365.383   1
   3   5   1 3024.33 393.140  -2
  -3   8   4 3024.33 393.140   1
  -3   8   4 1091.85 229.575   1
   3   5   2 5127.36 481.080  -2
  -3   8   5 5127.36 481.080   1
  -3   8   5 2721.93 226.704   1
   3   5   3 7641.05 586.493  -2
  -3   8   6 7641.05 586.493   1
  -3   8   6 2565.28 238.956   1
   3   5   4 7308.99 377.683  -2
  -3   8   7 7308.99 377.683   1
  -3   8   7 3555.50 392.346   1
   3   5   5 463.933 228.752  -2
  -3   8   8 463.933 228.752   1
  -3   8   8 320.682 357.117   1
   3   5   6 2723.56 371.896  -2
  -3   8   9 2723.56 371.896   1
  -3   8   9 1673.92 354.383   1
   3   5   7 3161.17 316.486  -2
  -3   8  10 3161.17 316.486   1
   3   5   8 4543.56 340.393  -2
  -3   8  11 4543.56 340.393   1
   3   5   9 1942.92 542.486  -2
  -3   8  12 1942.92 542.486   1
   3   5  10 3530.91 631.310  -2
  -3   8  13 3530.91 631.310   1
   3   5  11 701.383 581.971  -2
  -3   8  14 701.383 581.971   1
   3   5  12 969.455 611.955  -2
  -3   8  15 969.455 611.955   1
   3   6 -19 1038.46 401.581  -2
  -3   9 -16 1038.46 401.581   1
   3   6 -18 1199.59 388.375  -2
  -3   9 -15 1199.59 388.375   1
   3   6 -17 2066.00 382.216  -2
  -3   9 -14 2066.00 382.216   1
   3   6 -16 1412.86 522.879  -2
  -3   9 -13 1412.86 522.879   1
  -3   9 -13 526.944 257.142   1
  -3   9 -12 1739.72 253.754   1
  -3   9 -11 411.245 196.345   1
  -3   9 -10 2895.38 442.115   1
   3   6 -12 1628.68 296.777  -2
  -3   9  -9 1628.68 296.777   1
   3   6 -11 3328.22 431.348  -2
  -3   9  -8 3328.22 431.348   1
  -3   9  -8 2325.49 387.016   1
   3   6 -10 5881.08 497.840  -2
  -3   9  -7 5881.08 497.840   1
  -3   9  -6 8530.00 502.129   1
   3   6  -8 5252.45 456.126  -2
  -3   9  -5 5252.45 456.126   1
  -3   9  -4 10011.5 525.727   1
   3   6  -6 5656.86 474.798  -2
  -3   9  -3 5656.86 474.798   1
  -3   9  -2 10778.2 549.287   1
  -3   9  -1 155.269 239.987   1
   3   6  -3 12846.5 553.787  -2
  -3   9   0 12846.5 553.787   1
   3   6  -2 5462.37 244.208  -2
  -3   9   1 5462.37 244.208   1
   3   6  -1 15225.6 518.815  -2
  -3   9   2 15225.6 518.815   1
  -3   9   2 8340.79 454.220   1
   3   6   0 6787.80 438.645  -2
  -3   9   3 6787.80 438.645   1
  -3   9   3 1581.99 267.895   1
  -3   9   4 5686.06 297.915   1
   3   6   2 3362.40 331.962  -2
  -3   9   5 3362.40 331.962   1
  -3   9   5 916.249 262.872   1
  -3   9   6 3843.45 240.913   1
   3   6   4 8110.90 651.862  -2
  -3   9   7 8110.90 651.862   1
  -3   9   7 2649.19 268.197   1
   3   6   5 4846.68 555.067  -2
  -3   9   8 4846.68 555.067   1
  -3   9   8 2332.89 373.862   1
   3   6   6 1677.93 299.581  -2
  -3   9   9 1677.93 299.581   1
   3   6   7 4627.43 365.639  -2
  -3   9  10 4627.43 365.639   1
   3   6   8 1992.14 307.490  -2
  -3   9  11 1992.14 307.490   1
   3   6   9 3694.49 631.581  -2
  -3   9  12 3694.49 631.581   1
   3   6  10 1583.26 611.795  -2
  -3   9  13 1583.26 611.795   1
   3   6  11 1963.77 646.698  -2
  -3   9  14 1963.77 646.698   1
   3   7 -19 916.507 383.972  -2
  -3  10 -16 916.507 383.972   1
   3   7 -18 1096.22 501.829  -2
  -3  10 -15 1096.22 501.829   1
  -3  10 -15 987.613 448.366   1
   3   7 -17 2024.11 500.145  -2
  -3  10 -14 2024.11 500.145   1
  -3  10 -14 329.917 401.271   1
  -3  10 -13 1800.00 275.072   1
  -3  10 -12 42.8535 354.557   1
  -3  10 -11 2636.38 444.039   1
   3   7 -13 2242.24 465.791  -2
  -3  10 -10 2242.24 465.791   1
  -3  10 -10 462.281 309.401   1
   3   7 -12 2506.02 467.852  -2
  -3  10  -9 2506.02 467.852   1
  -3  10  -9 1652.86 343.076   1
   3   7 -11 2469.45 465.331  -2
  -3  10  -8 2469.45 465.331   1
  -3  10  -8 245.152 273.736   1
   3   7 -10 4276.16 505.508  -2
  -3  10  -7 4276.16 505.508   1
   3   7  -9 2184.40 416.892  -2
  -3  10  -6 2184.40 416.892   1
   3   7  -8 6016.28 523.412  -2
  -3  10  -5 6016.28 523.412   1
   3   7  -7 5451.91 516.851  -2
  -3  10  -4 5451.91 516.851   1
   3   7  -6 14900.1 703.083  -2
  -3  10  -3 14900.1 703.083   1
  -3  10  -2-19.8472 271.477   1
   3   7  -4 1082.03 349.663  -2
  -3  10  -1 1082.03 349.663   1
   3   7  -3 4382.89 418.455  -2
  -3  10   0 4382.89 418.455   1
   3   7  -2 3111.81 272.435  -2
  -3  10   1 3111.81 272.435   1
  -3  10   1 3973.95 370.120   1
   3   7  -1 2041.06 304.058  -2
  -3  10   2 2041.06 304.058   1
  -3  10   2 29.8931 234.538   1
  -3  10   3 6432.59 308.871   1
   3   7   1 4833.23 460.454  -2
  -3  10   4 4833.23 460.454   1
  -3  10   4 960.164 278.974   1
   3   7   2 4858.55 516.518  -2
  -3  10   5 4858.55 516.518   1
  -3  10   5 3100.36 284.090   1
   3   7   3 2075.54 466.705  -2
  -3  10   6 2075.54 466.705   1
  -3  10   6 313.399 199.218   1
   3   7   4 3371.43 529.787  -2
  -3  10   7 3371.43 529.787   1
  -3  10   7 1588.87 262.916   1
   3   7   5 957.419 467.510  -2
  -3  10   8 957.419 467.510   1
  -3  10   8-50.4732 315.296   1
   3   7   6 3524.42 354.458  -2
  -3  10   9 3524.42 354.458   1
  -3  10   9 1960.55 414.856   1
   3   7   7 1913.79 326.086  -2
  -3  10  10 1913.79 326.086   1
  -3  10  10 311.863 359.793   1
   3   7   8 3377.64 648.447  -2
  -3  10  11 3377.64 648.447   1
   3   7   9 1107.55 603.110  -2
  -3  10  12 1107.55 603.110   1
   3   7  10 2978.34 695.111  -2
  -3  10  13 2978.34 695.111   1
  -3  11 -15 330.645 387.870   1
   3   8 -17 1978.18 566.599  -2
  -3  11 -14 1978.18 566.599   1
  -3  11 -13 354.439 353.994   1
  -3  11 -12 1707.62 422.970   1
   3   8 -14 1475.73 511.307  -2
  -3  11 -11 1475.73 511.307   1
  -3  11 -11 142.052 346.896   1
   3   8 -13 2391.22 515.618  -2
  -3  11 -10 2391.22 515.618   1
  -3  11 -10 1759.66 370.948   1
   3   8 -12 2038.09 481.731  -2
  -3  11  -9 2038.09 481.731   1
  -3  11  -9 463.361 290.649   1
   3   8 -11 5910.85 583.954  -2
  -3  11  -8 5910.85 583.954   1
  -3  11  -8 2574.53 367.595   1
   3   8 -10 2325.75 285.423  -2
  -3  11  -7 2325.75 285.423   1
   3   8  -9 4749.59 528.507  -2
  -3  11  -6 4749.59 528.507   1
   3   8  -8 2596.13 476.978  -2
  -3  11  -5 2596.13 476.978   1
   3   8  -7 10746.9 675.976  -2
  -3  11  -4 10746.9 675.976   1
   3   8  -6 10905.8 680.442  -2
  -3  11  -3 10905.8 680.442   1
   3   8  -5 8973.15 623.993  -2
  -3  11  -2 8973.15 623.993   1
  -3  11  -1 1421.09 340.685   1
  -3  11   0 4495.77 435.274   1
  -3  11   1 688.657 276.817   1
  -3  11   2 3904.95 402.747   1
  -3  11   3 1303.67 219.691   1
   3   8   1 11182.7 723.040  -2
  -3  11   4 11182.7 723.040   1
  -3  11   4 6892.23 359.551   1
   3   8   2 4719.21 513.541  -2
  -3  11   5 4719.21 513.541   1
  -3  11   5 1505.00 256.997   1
   3   8   3 4691.99 567.125  -2
  -3  11   6 4691.99 567.125   1
  -3  11   6 2541.19 296.310   1
   3   8   4 4146.67 595.593  -2
  -3  11   7 4146.67 595.593   1
  -3  11   7 1363.01 277.682   1
   3   8   5 4178.07 628.254  -2
  -3  11   8 4178.07 628.254   1
  -3  11   8 1896.71 313.773   1
  -3  11   9 334.119 268.250   1
   3   8   7 2565.65 368.811  -2
  -3  11  10 2565.65 368.811   1
  -3  11  10 1869.40 449.207   1
   3   8   8 1762.15 644.145  -2
  -3  11  11 1762.15 644.145   1
  -3  11  11 899.655 424.077   1
   3   8   9 3504.64 725.632  -2
  -3  11  12 3504.64 725.632   1
  -3  12 -14 164.027 377.847   1
  -3  12 -13 1800.67 455.923   1
   3   9 -15 1342.61 517.160  -2
  -3  12 -12 1342.61 517.160   1
  -3  12 -12 300.202 350.300   1
   3   9 -14 1624.30 544.336  -2
  -3  12 -11 1624.30 544.336   1
  -3  12 -11 908.409 352.582   1
   3   9 -13 2341.93 580.994  -2
  -3  12 -10 2341.93 580.994   1
  -3  12 -10 179.243 305.829   1
   3   9 -12 3591.68 560.885  -2
  -3  12  -9 3591.68 560.885   1
  -3  12  -9 1484.33 339.295   1
   3   9 -11 972.088 471.695  -2
  -3  12  -8 972.088 471.695   1
  -3  12  -8 98.1465 259.278   1
   3   9 -10 2524.70 296.445  -2
  -3  12  -7 2524.70 296.445   1
   3   9  -9 5572.11 592.647  -2
  -3  12  -6 5572.11 592.647   1
  -3  12  -6 625.668 255.201   1
   3   9  -8 4961.21 563.584  -2
  -3  12  -5 4961.21 563.584   1
   3   9  -7 2001.11 484.336  -2
  -3  12  -4 2001.11 484.336   1
   3   9  -6 6106.92 613.265  -2
  -3  12  -3 6106.92 613.265   1
   3   9  -5 3221.01 511.593  -2
  -3  12  -2 3221.01 511.593   1
   3   9  -4 4737.22 538.201  -2
  -3  12  -1 4737.22 538.201   1
   3   9  -3 1800.46 442.977  -2
  -3  12   0 1800.46 442.977   1
  -3  12   1 2836.27 402.653   1
  -3  12   2 28.9619 280.775   1
  -3  12   3 3304.44 426.970   1
  -3  12   4 204.201 226.497   1
  -3  12   5 2978.16 316.657   1
  -3  12   6 198.403 246.749   1
   3   9   4 3108.06 619.937  -2
  -3  12   7 3108.06 619.937   1
  -3  12   7 1109.69 403.344   1
   3   9   5 1156.97 564.189  -2
  -3  12   8 1156.97 564.189   1
  -3  12   8 160.173 356.789   1
   3   9   6 2298.24 643.072  -2
  -3  12   9 2298.24 643.072   1
  -3  12   9 1416.23 430.031   1
   3   9   7 1135.25 622.140  -2
  -3  12  10 1135.25 622.140   1
  -3  12  10 66.6450 423.230   1
   3  10 -16 1396.08 607.469  -2
  -3  13 -13 1396.08 607.469   1
   3  10 -15 2415.41 609.787  -2
  -3  13 -12 2415.41 609.787   1
   3  10 -14 798.566 543.836  -2
  -3  13 -11 798.566 543.836   1
   3  10 -13 2912.00 568.693  -2
  -3  13 -10 2912.00 568.693   1
   3  10 -12 2533.88 547.464  -2
  -3  13  -9 2533.88 547.464   1
   3  10 -11 1580.01 509.660  -2
  -3  13  -8 1580.01 509.660   1
   3  10 -10 3494.96 566.195  -2
  -3  13  -7 3494.96 566.195   1
   3  10  -9 6595.95 673.314  -2
  -3  13  -6 6595.95 673.314   1
   3  10  -8 1719.05 511.134  -2
  -3  13  -5 1719.05 511.134   1
   3  10  -7 3253.11 599.347  -2
  -3  13  -4 3253.11 599.347   1
   3  10  -6 1296.90 521.656  -2
  -3  13  -3 1296.90 521.656   1
   3  10  -5 5482.83 631.481  -2
  -3  13  -2 5482.83 631.481   1
   3  10  -4 2576.02 477.619  -2
  -3  13  -1 2576.02 477.619   1
  -3  13   0 3159.38 440.344   1
   3  10  -2 5142.43 560.004  -2
  -3  13   1 5142.43 560.004   1
  -3  13   2 2773.38 426.660   1
  -3  13   3 284.323 343.763   1
   3  10   1 4586.24 665.547  -2
  -3  13   4 4586.24 665.547   1
  -3  13   4 2271.34 427.411   1
   3  10   2 3068.43 619.958  -2
  -3  13   5 3068.43 619.958   1
  -3  13   5 801.525 362.945   1
   3  10   3 4266.12 680.375  -2
  -3  13   6 4266.12 680.375   1
  -3  13   6 2664.28 482.560   1
   3  10   4 4400.89 699.205  -2
  -3  13   7 4400.89 699.205   1
  -3  13   7 1284.63 425.436   1
   3  10   5 2980.42 660.291  -2
  -3  13   8 2980.42 660.291   1
  -3  13   8 2098.94 488.248   1
   3  11 -15 1844.89 641.905  -2
  -3  14 -12 1844.89 641.905   1
   3  11 -14 1855.45 612.472  -2
  -3  14 -11 1855.45 612.472   1
   3  11 -13 1445.20 567.274  -2
  -3  14 -10 1445.20 567.274   1
   3  11 -12 2268.17 585.761  -2
  -3  14  -9 2268.17 585.761   1
   3  11 -11 1445.86 571.024  -2
  -3  14  -8 1445.86 571.024   1
   3  11 -10 1714.18 580.357  -2
  -3  14  -7 1714.18 580.357   1
   3  11  -9 2382.26 588.741  -2
  -3  14  -6 2382.26 588.741   1
   3  11  -8 2399.31 593.509  -2
  -3  14  -5 2399.31 593.509   1
   3  11  -7 1365.80 583.653  -2
  -3  14  -4 1365.80 583.653   1
   3  11  -6 5776.86 710.989  -2
  -3  14  -3 5776.86 710.989   1
   3  11  -5 3263.44 636.113  -2
  -3  14  -2 3263.44 636.113   1
   3  11  -4 2858.53 588.295  -2
  -3  14  -1 2858.53 588.295   1
   3  11  -3 1379.07 526.827  -2
  -3  14   0 1379.07 526.827   1
   3  11  -2 1052.18 510.052  -2
  -3  14   1 1052.18 510.052   1
  -3  14   2-45.4550 375.189   1
   3  11   0 4555.92 706.124  -2
  -3  14   3 4555.92 706.124   1
  -3  14   3 3296.28 523.481   1
  -3  14   4 179.678 301.437   1
   3  11   2 2901.64 663.463  -2
  -3  14   5 2901.64 663.463   1
  -3  14   5 2784.42 509.497   1
   3  11   3 1093.46 612.589  -2
  -3  14   6 1093.46 612.589   1
  -3  14   6 438.005 404.598   1
   3  12 -13 2920.00 697.672  -2
  -3  15 -10 2920.00 697.672   1
   3  12 -12 2037.86 640.549  -2
  -3  15  -9 2037.86 640.549   1
   3  12 -11 3453.95 618.973  -2
  -3  15  -8 3453.95 618.973   1
   3  12 -10 1172.65 573.416  -2
  -3  15  -7 1172.65 573.416   1
   3  12  -9 1333.29 611.819  -2
  -3  15  -6 1333.29 611.819   1
   3  12  -8 2114.90 648.071  -2
  -3  15  -5 2114.90 648.071   1
   3  12  -7 2776.10 669.630  -2
  -3  15  -4 2776.10 669.630   1
   3  12  -6 1494.71 606.239  -2
  -3  15  -3 1494.71 606.239   1
   3  12  -5 3826.10 671.826  -2
  -3  15  -2 3826.10 671.826   1
   3  12  -4 2349.79 601.914  -2
  -3  15  -1 2349.79 601.914   1
   3  12  -3 2345.75 595.707  -2
  -3  15   0 2345.75 595.707   1
  -3  15   1 300.535 384.569   1
  -3  15   2 1911.51 490.784   1
  -3  15   3 388.443 309.846   1
   3  13  -8 1129.33 653.929  -2
  -3  16  -5 1129.33 653.929   1
   3  13  -7 1510.08 653.952  -2
  -3  16  -4 1510.08 653.952   1
   3  13  -6 1568.78 662.941  -2
  -3  16  -3 1568.78 662.941   1
   3  13  -5 1082.43 632.206  -2
  -3  16  -2 1082.43 632.206   1
  -2 -14   3 229.773 340.990   1
   2 -16   2 536.472 627.370  -2
  -2 -14   4 536.472 627.370   1
  -2 -14   4 345.132 484.453   1
   2 -16   3 2145.89 489.750  -2
  -2 -14   5 2145.89 489.750   1
   2 -16   4 969.932 450.642  -2
  -2 -14   6 969.932 450.642   1
   2 -16   5 963.925 443.726  -2
  -2 -14   7 963.925 443.726   1
   2 -16   6 498.852 448.615  -2
  -2 -14   8 498.852 448.615   1
  -2 -14   9 216.682 318.924   1
   2 -15  -3 753.237 458.013  -2
  -2 -13  -1 753.237 458.013   1
   2 -15  -2 2547.77 493.052  -2
  -2 -13   0 2547.77 493.052   1
   2 -15  -1 626.802 434.142  -2
  -2 -13   1 626.802 434.142   1
   2 -15   0 1899.68 441.160  -2
  -2 -13   2 1899.68 441.160   1
   2 -15   1 641.612 411.027  -2
  -2 -13   3 641.612 411.027   1
   2 -15   2 1313.47 423.532  -2
  -2 -13   4 1313.47 423.532   1
   2 -15   3 896.416 420.412  -2
  -2 -13   5 896.416 420.412   1
   2 -15   4 2693.31 455.012  -2
  -2 -13   6 2693.31 455.012   1
   2 -15   5 1256.73 412.022  -2
  -2 -13   7 1256.73 412.022   1
   2 -15   6 119.679 310.444  -2
  -2 -13   8 119.679 310.444   1
   2 -15   7 377.323 403.048  -2
  -2 -13   9 377.323 403.048   1
   2 -15   8 1402.04 422.828  -2
  -2 -13  10 1402.04 422.828   1
   2 -15   9 324.744 298.266  -2
  -2 -13  11 324.744 298.266   1
   2 -15  10 994.194 457.960  -2
  -2 -13  12 994.194 457.960   1
  -2 -13  13 524.601 356.608   1
   2 -14  -6 928.975 453.401  -2
  -2 -12  -4 928.975 453.401   1
   2 -14  -5 4156.75 518.768  -2
  -2 -12  -3 4156.75 518.768   1
   2 -14  -4 966.723 434.320  -2
  -2 -12  -2 966.723 434.320   1
   2 -14  -3 3044.90 472.038  -2
  -2 -12  -1 3044.90 472.038   1
   2 -14  -2 832.937 396.551  -2
  -2 -12   0 832.937 396.551   1
   2 -14  -1 1806.01 410.891  -2
  -2 -12   1 1806.01 410.891   1
   2 -14   0 1258.51 400.266  -2
  -2 -12   2 1258.51 400.266   1
   2 -14   1 3358.30 455.099  -2
  -2 -12   3 3358.30 455.099   1
   2 -14   2 1040.11 375.342  -2
  -2 -12   4 1040.11 375.342   1
   2 -14   3 1427.59 393.511  -2
  -2 -12   5 1427.59 393.511   1
   2 -14   4 1510.25 409.477  -2
  -2 -12   6 1510.25 409.477   1
   2 -14   5 2966.73 445.222  -2
  -2 -12   7 2966.73 445.222   1
   2 -14   6 613.107 371.684  -2
  -2 -12   8 613.107 371.684   1
   2 -14   7 1480.46 415.630  -2
  -2 -12   9 1480.46 415.630   1
   2 -14   8 765.371 393.485  -2
  -2 -12  10 765.371 393.485   1
   2 -14   9 1200.15 437.246  -2
  -2 -12  11 1200.15 437.246   1
   2 -14  10 626.778 426.373  -2
  -2 -12  12 626.778 426.373   1
   2 -14  11 2808.14 481.808  -2
  -2 -12  13 2808.14 481.808   1
   2 -14  12 1358.44 465.013  -2
  -2 -12  14 1358.44 465.013   1
   2 -14  13 857.973 692.147  -2
  -2 -12  15 857.973 692.147   1
  -2 -12  15 387.139 445.988   1
   2 -13  -8 2979.95 518.119  -2
  -2 -11  -6 2979.95 518.119   1
   2 -13  -7 1004.05 443.905  -2
  -2 -11  -5 1004.05 443.905   1
   2 -13  -6 6962.75 565.304  -2
  -2 -11  -4 6962.75 565.304   1
   2 -13  -5 1967.09 427.856  -2
  -2 -11  -3 1967.09 427.856   1
   2 -13  -4 4779.46 494.191  -2
  -2 -11  -2 4779.46 494.191   1
   2 -13  -3 899.462 370.661  -2
  -2 -11  -1 899.462 370.661   1
   2 -13  -2 4280.80 438.810  -2
  -2 -11   0 4280.80 438.810   1
   2 -13  -1 387.913 351.428  -2
  -2 -11   1 387.913 351.428   1
   2 -13   0 2098.00 387.204  -2
  -2 -11   2 2098.00 387.204   1
   2 -13   1 956.202 348.741  -2
  -2 -11   3 956.202 348.741   1
   2 -13   2 4894.01 455.821  -2
  -2 -11   4 4894.01 455.821   1
   2 -13   3 765.776 346.370  -2
  -2 -11   5 765.776 346.370   1
   2 -13   4 3414.19 416.436  -2
  -2 -11   6 3414.19 416.436   1
   2 -13   5 1301.67 367.182  -2
  -2 -11   7 1301.67 367.182   1
   2 -13   6 1310.61 381.109  -2
  -2 -11   8 1310.61 381.109   1
   2 -13   7 401.232 345.060  -2
  -2 -11   9 401.232 345.060   1
   2 -13   8 735.226 368.371  -2
  -2 -11  10 735.226 368.371   1
   2 -13   9 1544.44 391.888  -2
  -2 -11  11 1544.44 391.888   1
   2 -13  10 1751.16 419.784  -2
  -2 -11  12 1751.16 419.784   1
   2 -13  11 1992.64 440.019  -2
  -2 -11  13 1992.64 440.019   1
   2 -13  12 2671.92 474.858  -2
  -2 -11  14 2671.92 474.858   1
   2 -13  13 824.676 421.276  -2
  -2 -11  15 824.676 421.276   1
   2 -13  14 1835.49 606.722  -2
  -2 -11  16 1835.49 606.722   1
   2 -12 -10 2235.84 795.600  -2
  -2 -10  -8 2235.84 795.600   1
  -2 -10  -8-1.09534 401.430   1
   2 -12  -9 5118.15 562.808  -2
  -2 -10  -7 5118.15 562.808   1
   2 -12  -8 474.826 406.972  -2
  -2 -10  -6 474.826 406.972   1
   2 -12  -7 2004.62 437.150  -2
  -2 -10  -5 2004.62 437.150   1
   2 -12  -6 393.211 310.387  -2
  -2 -10  -4 393.211 310.387   1
   2 -12  -5 3691.63 428.652  -2
  -2 -10  -3 3691.63 428.652   1
   2 -12  -4 913.451 348.599  -2
  -2 -10  -2 913.451 348.599   1
   2 -12  -3 4720.17 434.897  -2
  -2 -10  -1 4720.17 434.897   1
   2 -12  -2 1680.35 352.505  -2
  -2 -10   0 1680.35 352.505   1
   2 -12  -1 3139.49 382.503  -2
  -2 -10   1 3139.49 382.503   1
   2 -12   0 1281.73 337.047  -2
  -2 -10   2 1281.73 337.047   1
   2 -12   1 1723.37 342.433  -2
  -2 -10   3 1723.37 342.433   1
   2 -12   2 443.581 311.246  -2
  -2 -10   4 443.581 311.246   1
   2 -12   3 2509.17 368.122  -2
  -2 -10   5 2509.17 368.122   1
   2 -12   4 1462.49 331.158  -2
  -2 -10   6 1462.49 331.158   1
   2 -12   5 4905.47 430.914  -2
  -2 -10   7 4905.47 430.914   1
   2 -12   6 799.456 322.665  -2
  -2 -10   8 799.456 322.665   1
   2 -12   7 673.799 325.736  -2
  -2 -10   9 673.799 325.736   1
   2 -12   8 234.254 322.632  -2
  -2 -10  10 234.254 322.632   1
   2 -12   9 2427.28 401.149  -2
  -2 -10  11 2427.28 401.149   1
   2 -12  10 1715.86 390.473  -2
  -2 -10  12 1715.86 390.473   1
   2 -12  11 3784.08 463.974  -2
  -2 -10  13 3784.08 463.974   1
   2 -12  12 2037.40 562.344  -2
  -2 -10  14 2037.40 562.344   1
   2 -12  13 1990.58 564.312  -2
  -2 -10  15 1990.58 564.312   1
   2 -12  14 2632.30 602.673  -2
  -2 -10  16 2632.30 602.673   1
   2 -12  15 1952.07 624.719  -2
  -2 -10  17 1952.07 624.719   1
   2 -11 -11 954.298 358.116  -2
  -2  -9  -9 954.298 358.116   1
   2 -11 -10 3882.42 399.209  -2
  -2  -9  -8 3882.42 399.209   1
   2 -11  -9 96.1038 297.968  -2
  -2  -9  -7 96.1038 297.968   1
   2 -11  -8 3490.14 349.437  -2
  -2  -9  -6 3490.14 349.437   1
   2 -11  -7 265.403 258.973  -2
  -2  -9  -5 265.403 258.973   1
   2 -11  -6 4719.87 331.993  -2
  -2  -9  -4 4719.87 331.993   1
   2 -11  -5 1617.38 251.185  -2
  -2  -9  -3 1617.38 251.185   1
   2 -11  -4 8114.98 341.517  -2
  -2  -9  -2 8114.98 341.517   1
   2 -11  -3 1008.21 315.826  -2
  -2  -9  -1 1008.21 315.826   1
   2 -11  -2 6815.04 435.304  -2
  -2  -9   0 6815.04 435.304   1
   2 -11  -1 1479.35 310.302  -2
  -2  -9   1 1479.35 310.302   1
   2 -11   0 2290.86 335.632  -2
  -2  -9   2 2290.86 335.632   1
   2 -11   1 740.325 294.159  -2
  -2  -9   3 740.325 294.159   1
   2 -11   2 3862.31 371.656  -2
  -2  -9   4 3862.31 371.656   1
   2 -11   3 1067.79 306.114  -2
  -2  -9   5 1067.79 306.114   1
   2 -11   4 7553.41 451.998  -2
  -2  -9   6 7553.41 451.998   1
   2 -11   5 3480.64 372.928  -2
  -2  -9   7 3480.64 372.928   1
   2 -11   6 3620.14 378.934  -2
  -2  -9   8 3620.14 378.934   1
   2 -11   7 814.199 311.023  -2
  -2  -9   9 814.199 311.023   1
   2 -11   8 1613.31 347.349  -2
  -2  -9  10 1613.31 347.349   1
   2 -11   9 361.336 316.237  -2
  -2  -9  11 361.336 316.237   1
   2 -11  10 2730.18 527.662  -2
  -2  -9  12 2730.18 527.662   1
   2 -11  11 2750.23 522.616  -2
  -2  -9  13 2750.23 522.616   1
   2 -11  12 5564.57 681.892  -2
  -2  -9  14 5564.57 681.892   1
   2 -11  13 654.665 355.836  -2
  -2  -9  15 654.665 355.836   1
   2 -11  14 2447.88 589.368  -2
  -2  -9  16 2447.88 589.368   1
   2 -11  15 1410.99 556.829  -2
  -2  -9  17 1410.99 556.829   1
   2 -11  16 2442.86 623.778  -2
  -2  -9  18 2442.86 623.778   1
  -2  -8 -11 1947.99 320.318   1
   2 -10 -12 856.532 355.621  -2
  -2  -8 -10 856.532 355.621   1
   2 -10 -11 8255.55 480.852  -2
  -2  -8  -9 8255.55 480.852   1
   2 -10 -10 1053.98 318.215  -2
  -2  -8  -8 1053.98 318.215   1
   2 -10  -9 4735.86 367.215  -2
  -2  -8  -7 4735.86 367.215   1
   2 -10  -8 266.877 259.602  -2
  -2  -8  -6 266.877 259.602   1
   2 -10  -7 6457.98 363.288  -2
  -2  -8  -5 6457.98 363.288   1
   2 -10  -6 1159.23 243.652  -2
  -2  -8  -4 1159.23 243.652   1
   2 -10  -5 10977.2 375.898  -2
  -2  -8  -3 10977.2 375.898   1
   2 -10  -4 2000.08 225.082  -2
  -2  -8  -2 2000.08 225.082   1
   2 -10  -3 3585.41 165.746  -2
  -2  -8  -1 3585.41 165.746   1
   2 -10  -2 462.474 110.408  -2
  -2  -8   0 462.474 110.408   1
   2 -10  -1 6730.05 247.689  -2
  -2  -8   1 6730.05 247.689   1
   2 -10   0 864.629 134.306  -2
  -2  -8   2 864.629 134.306   1
   2 -10   1 4238.41 159.213  -2
  -2  -8   3 4238.41 159.213   1
  -2  -8   3 3172.66 167.433   1
   2 -10   2 2265.53 309.531  -2
  -2  -8   4 2265.53 309.531   1
   2 -10   3 2691.57 310.501  -2
  -2  -8   5 2691.57 310.501   1
   2 -10   4 2193.98 303.203  -2
  -2  -8   6 2193.98 303.203   1
   2 -10   5 6516.87 413.787  -2
  -2  -8   7 6516.87 413.787   1
   2 -10   6 1853.79 309.368  -2
  -2  -8   8 1853.79 309.368   1
   2 -10   7 2669.24 349.930  -2
  -2  -8   9 2669.24 349.930   1
   2 -10   8 1362.61 415.244  -2
  -2  -8  10 1362.61 415.244   1
   2 -10   9 2662.58 478.354  -2
  -2  -8  11 2662.58 478.354   1
   2 -10  10 1302.10 423.077  -2
  -2  -8  12 1302.10 423.077   1
   2 -10  11 3632.58 389.609  -2
  -2  -8  13 3632.58 389.609   1
   2 -10  12 3394.72 405.610  -2
  -2  -8  14 3394.72 405.610   1
   2 -10  13 5314.48 467.116  -2
  -2  -8  15 5314.48 467.116   1
   2 -10  14 1442.43 396.810  -2
  -2  -8  16 1442.43 396.810   1
   2 -10  15 2019.70 435.235  -2
  -2  -8  17 2019.70 435.235   1
   2 -10  16 1425.32 426.061  -2
  -2  -8  18 1425.32 426.061   1
   2 -10  17 1960.41 580.072  -2
  -2  -8  19 1960.41 580.072   1
  -2  -8  19 374.194 536.202   1
   2  -9 -14 3583.84 460.077  -2
  -2  -7 -12 3583.84 460.077   1
   2  -9 -13 249.648 275.925  -2
  -2  -7 -11 249.648 275.925   1
   2  -9 -12 6173.94 451.396  -2
  -2  -7 -10 6173.94 451.396   1
   2  -9 -11 501.276 307.111  -2
  -2  -7  -9 501.276 307.111   1
   2  -9 -10 7912.35 343.106  -2
  -2  -7  -8 7912.35 343.106   1
   2  -9  -9 972.686 220.868  -2
  -2  -7  -7 972.686 220.868   1
   2  -9  -8 5995.81 277.525  -2
  -2  -7  -6 5995.81 277.525   1
   2  -9  -7 222.636 164.945  -2
  -2  -7  -5 222.636 164.945   1
   2  -9  -6 3681.35 211.457  -2
  -2  -7  -4 3681.35 211.457   1
   2  -9  -5 2177.25 180.321  -2
  -2  -7  -3 2177.25 180.321   1
   2  -9  -4 8437.92 237.950  -2
  -2  -7  -2 8437.92 237.950   1
   2  -9  -3 1892.70 196.333  -2
  -2  -7  -1 1892.70 196.333   1
   2  -9  -2 7351.86 190.758  -2
  -2  -7   0 7351.86 190.758   1
   2  -9  -1 1933.68 144.519  -2
  -2  -7   1 1933.68 144.519   1
   2  -9   0 2648.64 153.909  -2
  -2  -7   2 2648.64 153.909   1
   2  -9   1 719.679 90.0724  -2
  -2  -7   3 719.679 90.0724   1
   2  -9   2 6273.24 139.167  -2
  -2  -7   4 6273.24 139.167   1
   2  -9   3 1601.87 88.2059  -2
  -2  -7   5 1601.87 88.2059   1
   2  -9   4 2186.55 119.986  -2
  -2  -7   6 2186.55 119.986   1
   2  -9   5 1886.37 136.454  -2
  -2  -7   7 1886.37 136.454   1
   2  -9   6 10905.6 474.949  -2
  -2  -7   8 10905.6 474.949   1
   2  -9   7 985.056 380.506  -2
  -2  -7   9 985.056 380.506   1
   2  -9   8 1720.34 383.969  -2
  -2  -7  10 1720.34 383.969   1
   2  -9   9 2744.31 333.219  -2
  -2  -7  11 2744.31 333.219   1
   2  -9  10 2243.85 328.744  -2
  -2  -7  12 2243.85 328.744   1
   2  -9  11 1864.72 338.037  -2
  -2  -7  13 1864.72 338.037   1
   2  -9  12 7650.68 499.344  -2
  -2  -7  14 7650.68 499.344   1
   2  -9  13 2136.80 389.849  -2
  -2  -7  15 2136.80 389.849   1
   2  -9  14 3290.66 431.294  -2
  -2  -7  16 3290.66 431.294   1
   2  -9  15 1501.33 390.858  -2
  -2  -7  17 1501.33 390.858   1
   2  -9  16 2274.67 452.703  -2
  -2  -7  18 2274.67 452.703   1
   2  -9  17 1181.75 417.058  -2
  -2  -7  19 1181.75 417.058   1
   2  -8 -15 3659.79 383.634  -2
  -2  -6 -13 3659.79 383.634   1
   2  -8 -14 559.982 303.112  -2
  -2  -6 -12 559.982 303.112   1
   2  -8 -13 4364.49 351.842  -2
  -2  -6 -11 4364.49 351.842   1
   2  -8 -12 546.800 247.072  -2
  -2  -6 -10 546.800 247.072   1
   2  -8 -11 10229.9 393.162  -2
  -2  -6  -9 10229.9 393.162   1
   2  -8 -10 513.219 220.119  -2
  -2  -6  -8 513.219 220.119   1
   2  -8  -9 9517.98 331.018  -2
  -2  -6  -7 9517.98 331.018   1
   2  -8  -8 792.562 189.428  -2
  -2  -6  -6 792.562 189.428   1
   2  -8  -7 3735.91 221.135  -2
  -2  -6  -5 3735.91 221.135   1
   2  -8  -6 996.872 164.271  -2
  -2  -6  -4 996.872 164.271   1
   2  -8  -5 7471.87 238.550  -2
  -2  -6  -3 7471.87 238.550   1
   2  -8  -4 1886.22 282.945  -2
  -2  -6  -2 1886.22 282.945   1
   2  -8  -3 11637.9 419.873  -2
  -2  -6  -1 11637.9 419.873   1
   2  -8  -2 1856.57 152.298  -2
  -2  -6   0 1856.57 152.298   1
   2  -8  -1 11461.0 251.965  -2
  -2  -6   1 11461.0 251.965   1
   2  -8   0 1685.08 136.086  -2
  -2  -6   2 1685.08 136.086   1
   2  -8   1 2410.50 111.768  -2
  -2  -6   3 2410.50 111.768   1
   2  -8   2 537.789 84.7267  -2
  -2  -6   4 537.789 84.7267   1
   2  -8   3 8011.32 197.833  -2
  -2  -6   5 8011.32 197.833   1
   2  -8   4 1264.49 124.072  -2
  -2  -6   6 1264.49 124.072   1
   2  -8   5 9346.19 264.218  -2
  -2  -6   7 9346.19 264.218   1
   2  -8   6 4014.18 216.212  -2
  -2  -6   8 4014.18 216.212   1
   2  -8   7 4277.42 340.474  -2
  -2  -6   9 4277.42 340.474   1
   2  -8   8 2376.02 298.708  -2
  -2  -6  10 2376.02 298.708   1
   2  -8   9 5209.60 392.484  -2
  -2  -6  11 5209.60 392.484   1
   2  -8  10 684.610 291.253  -2
  -2  -6  12 684.610 291.253   1
   2  -8  11 3874.17 380.010  -2
  -2  -6  13 3874.17 380.010   1
   2  -8  12 3598.85 389.847  -2
  -2  -6  14 3598.85 389.847   1
   2  -8  13 9499.93 548.446  -2
  -2  -6  15 9499.93 548.446   1
   2  -8  14 1835.15 378.793  -2
  -2  -6  16 1835.15 378.793   1
   2  -8  15 3488.63 448.170  -2
  -2  -6  17 3488.63 448.170   1
   2  -8  16 792.164 395.839  -2
  -2  -6  18 792.164 395.839   1
   2  -8  17 2290.48 446.177  -2
  -2  -6  19 2290.48 446.177   1
   2  -7 -16 2894.72 381.891  -2
  -2  -5 -14 2894.72 381.891   1
   2  -7 -15 298.819 311.329  -2
  -2  -5 -13 298.819 311.329   1
   2  -7 -14 4652.75 367.924  -2
  -2  -5 -12 4652.75 367.924   1
   2  -7 -13 1238.22 277.278  -2
  -2  -5 -11 1238.22 277.278   1
   2  -7 -12 6845.23 351.989  -2
  -2  -5 -10 6845.23 351.989   1
   2  -7 -11 130.141 194.566  -2
  -2  -5  -9 130.141 194.566   1
   2  -7 -10 9123.49 344.234  -2
  -2  -5  -8 9123.49 344.234   1
   2  -7  -9 815.927 191.741  -2
  -2  -5  -7 815.927 191.741   1
   2  -7  -8 5876.94 264.299  -2
  -2  -5  -6 5876.94 264.299   1
   2  -7  -7 545.598 167.979  -2
  -2  -5  -5 545.598 167.979   1
   2  -7  -6 3614.52 241.711  -2
  -2  -5  -4 3614.52 241.711   1
   2  -7  -5 2287.52 260.833  -2
  -2  -5  -3 2287.52 260.833   1
   2  -7  -4 21112.8 516.901  -2
  -2  -5  -2 21112.8 516.901   1
   2  -7  -3 537.422 200.147  -2
  -2  -5  -1 537.422 200.147   1
   2  -7  -2 6387.36 305.063  -2
  -2  -5   0 6387.36 305.063   1
   2  -7  -1 3530.02 166.968  -2
  -2  -5   1 3530.02 166.968   1
   2  -7   0 5489.57 185.547  -2
  -2  -5   2 5489.57 185.547   1
   2  -7   1 746.987 91.8479  -2
  -2  -5   3 746.987 91.8479   1
   2  -7   2 5380.94 153.338  -2
  -2  -5   4 5380.94 153.338   1
  -2  -5   4 3110.97 318.751   1
   2  -7   3 5259.20 193.624  -2
  -2  -5   5 5259.20 193.624   1
  -2  -5   5 1062.43 258.318   1
   2  -7   4 9815.65 260.129  -2
  -2  -5   6 9815.65 260.129   1
   2  -7   5 2140.44 173.197  -2
  -2  -5   7 2140.44 173.197   1
   2  -7   6 12995.2 433.666  -2
  -2  -5   8 12995.2 433.666   1
   2  -7   7 2662.61 276.549  -2
  -2  -5   9 2662.61 276.549   1
   2  -7   8 3083.73 306.336  -2
  -2  -5  10 3083.73 306.336   1
   2  -7   9 1179.58 280.966  -2
  -2  -5  11 1179.58 280.966   1
   2  -7  10 3269.69 341.645  -2
  -2  -5  12 3269.69 341.645   1
   2  -7  11 461.941 280.488  -2
  -2  -5  13 461.941 280.488   1
   2  -7  12 7493.19 465.909  -2
  -2  -5  14 7493.19 465.909   1
   2  -7  13 4878.11 441.775  -2
  -2  -5  15 4878.11 441.775   1
   2  -7  14 6515.42 497.266  -2
  -2  -5  16 6515.42 497.266   1
   2  -7  15 1341.49 376.213  -2
  -2  -5  17 1341.49 376.213   1
   2  -7  16 2447.58 434.784  -2
  -2  -5  18 2447.58 434.784   1
   2  -7  17 997.855 415.890  -2
  -2  -5  19 997.855 415.890   1
   2  -7  18 2017.77 779.902  -2
  -2  -5  20 2017.77 779.902   1
  -2  -4 -15 1438.39 327.999   1
   2  -6 -16 427.775 380.502  -2
  -2  -4 -14 427.775 380.502   1
   2  -6 -15 3531.62 360.888  -2
  -2  -4 -13 3531.62 360.888   1
   2  -6 -14 305.438 269.105  -2
  -2  -4 -12 305.438 269.105   1
   2  -6 -13 4338.57 323.728  -2
  -2  -4 -11 4338.57 323.728   1
   2  -6 -12 599.353 243.076  -2
  -2  -4 -10 599.353 243.076   1
   2  -6 -11 10878.8 378.977  -2
  -2  -4  -9 10878.8 378.977   1
   2  -6 -10 1326.26 217.736  -2
  -2  -4  -8 1326.26 217.736   1
   2  -6  -9 6943.19 287.849  -2
  -2  -4  -7 6943.19 287.849   1
   2  -6  -8 573.005 181.451  -2
  -2  -4  -6 573.005 181.451   1
   2  -6  -7 11121.3 346.198  -2
  -2  -4  -5 11121.3 346.198   1
   2  -6  -6 2402.89 263.859  -2
  -2  -4  -4 2402.89 263.859   1
   2  -6  -5 8246.14 343.935  -2
  -2  -4  -3 8246.14 343.935   1
   2  -6  -4 6199.94 298.743  -2
  -2  -4  -2 6199.94 298.743   1
   2  -6  -3 11562.4 353.537  -2
  -2  -4  -1 11562.4 353.537   1
   2  -6  -2 2522.28 213.874  -2
  -2  -4   0 2522.28 213.874   1
   2  -6  -1 15159.1 268.641  -2
  -2  -4   1 15159.1 268.641   1
   2  -6   0 4380.14 169.048  -2
  -2  -4   2 4380.14 169.048   1
   2  -6   1 9743.58 177.907  -2
  -2  -4   3 9743.58 177.907   1
   2  -6   2 981.108 97.2298  -2
  -2  -4   4 981.108 97.2298   1
   2  -6   3 12457.7 278.648  -2
  -2  -4   5 12457.7 278.648   1
   2  -6   4 6250.24 226.405  -2
  -2  -4   6 6250.24 226.405   1
   2  -6   5 4049.10 277.969  -2
  -2  -4   7 4049.10 277.969   1
   2  -6   6 2771.05 261.792  -2
  -2  -4   8 2771.05 261.792   1
   2  -6   7 17487.0 498.901  -2
  -2  -4   9 17487.0 498.901   1
   2  -6   8 3411.59 305.949  -2
  -2  -4  10 3411.59 305.949   1
   2  -6   9 6489.50 395.572  -2
  -2  -4  11 6489.50 395.572   1
   2  -6  10 752.186 272.211  -2
  -2  -4  12 752.186 272.211   1
   2  -6  11 4016.10 381.017  -2
  -2  -4  13 4016.10 381.017   1
   2  -6  12 2864.33 364.165  -2
  -2  -4  14 2864.33 364.165   1
   2  -6  13 11708.3 575.226  -2
  -2  -4  15 11708.3 575.226   1
   2  -6  14 1738.11 371.464  -2
  -2  -4  16 1738.11 371.464   1
   2  -6  15 4748.34 464.666  -2
  -2  -4  17 4748.34 464.666   1
   2  -6  16 255.663 377.792  -2
  -2  -4  18 255.663 377.792   1
   2  -6  17 1224.18 742.967  -2
  -2  -4  19 1224.18 742.967   1
   2  -6  18-210.698 757.301  -2
  -2  -4  20-210.698 757.301   1
   2  -5 -17 542.863 399.317  -2
  -2  -3 -15 542.863 399.317   1
   2  -5 -16 4704.71 469.413  -2
  -2  -3 -14 4704.71 469.413   1
   2  -5 -15 320.844 341.578  -2
  -2  -3 -13 320.844 341.578   1
   2  -5 -14 4950.65 347.722  -2
  -2  -3 -12 4950.65 347.722   1
   2  -5 -13 252.786 201.492  -2
  -2  -3 -11 252.786 201.492   1
   2  -5 -12 5495.98 317.363  -2
  -2  -3 -10 5495.98 317.363   1
   2  -5 -11 632.623 214.732  -2
  -2  -3  -9 632.623 214.732   1
   2  -5 -10 18407.4 423.212  -2
  -2  -3  -8 18407.4 423.212   1
   2  -5  -9 335.147 213.254  -2
  -2  -3  -7 335.147 213.254   1
   2  -5  -8 10293.1 340.304  -2
  -2  -3  -6 10293.1 340.304   1
   2  -5  -7 353.437 168.198  -2
  -2  -3  -5 353.437 168.198   1
   2  -5  -6 3063.56 257.331  -2
  -2  -3  -4 3063.56 257.331   1
   2  -5  -5 1036.29 205.129  -2
  -2  -3  -3 1036.29 205.129   1
   2  -5  -4 18297.8 415.845  -2
  -2  -3  -2 18297.8 415.845   1
   2  -5  -3 1288.06 177.325  -2
  -2  -3  -1 1288.06 177.325   1
   2  -5  -2 14651.7 341.316  -2
  -2  -3   0 14651.7 341.316   1
   2  -5  -1 598.307 138.412  -2
  -2  -3   1 598.307 138.412   1
  -2  -3   1 60.6310 132.671   1
   2  -5   0 2993.45 173.778  -2
  -2  -3   2 2993.45 173.778   1
  -2  -3   2 637.660 162.580   1
   2  -5   1 868.990 102.059  -2
  -2  -3   3 868.990 102.059   1
  -2  -3   3 326.705 184.715   1
   2  -5   2 1450.02 111.876  -2
  -2  -3   4 1450.02 111.876   1
   2  -5   3 4083.88 185.085  -2
  -2  -3   5 4083.88 185.085   1
   2  -5   4 5437.74 193.075  -2
  -2  -3   6 5437.74 193.075   1
   2  -5   5 4539.73 265.459  -2
  -2  -3   7 4539.73 265.459   1
   2  -5   6 11642.1 385.717  -2
  -2  -3   8 11642.1 385.717   1
   2  -5   7 4934.87 308.192  -2
  -2  -3   9 4934.87 308.192   1
   2  -5   8 6578.99 352.933  -2
  -2  -3  10 6578.99 352.933   1
   2  -5   9 2759.76 307.557  -2
  -2  -3  11 2759.76 307.557   1
   2  -5  10 5371.81 370.902  -2
  -2  -3  12 5371.81 370.902   1
   2  -5  11 1589.10 308.444  -2
  -2  -3  13 1589.10 308.444   1
   2  -5  12 4387.40 390.901  -2
  -2  -3  14 4387.40 390.901   1
   2  -5  13 2039.12 361.781  -2
  -2  -3  15 2039.12 361.781   1
   2  -5  14 11050.1 581.835  -2
  -2  -3  16 11050.1 581.835   1
   2  -5  15 2203.31 397.033  -2
  -2  -3  17 2203.31 397.033   1
   2  -5  16 4072.98 458.343  -2
  -2  -3  18 4072.98 458.343   1
   2  -5  17 828.739 711.313  -2
  -2  -3  19 828.739 711.313   1
   2  -5  18 1573.76 842.440  -2
  -2  -3  20 1573.76 842.440   1
   2  -4 -18 429.227 449.107  -2
  -2  -2 -16 429.227 449.107   1
   2  -4 -17 5405.46 497.249  -2
  -2  -2 -15 5405.46 497.249   1
   2  -4 -16 752.107 378.639  -2
  -2  -2 -14 752.107 378.639   1
   2  -4 -15 4620.51 427.344  -2
  -2  -2 -13 4620.51 427.344   1
   2  -4 -14 737.767 311.335  -2
  -2  -2 -12 737.767 311.335   1
   2  -4 -13 4244.30 368.634  -2
  -2  -2 -11 4244.30 368.634   1
   2  -4 -12 4714.67 293.895  -2
  -2  -2 -10 4714.67 293.895   1
   2  -4 -11 6475.54 312.363  -2
  -2  -2  -9 6475.54 312.363   1
   2  -4 -10 1862.74 256.268  -2
  -2  -2  -8 1862.74 256.268   1
   2  -4  -9 14618.5 417.009  -2
  -2  -2  -7 14618.5 417.009   1
   2  -4  -8 912.125 188.093  -2
  -2  -2  -6 912.125 188.093   1
   2  -4  -7 9906.19 393.886  -2
  -2  -2  -5 9906.19 393.886   1
   2  -4  -6 2689.46 245.468  -2
  -2  -2  -4 2689.46 245.468   1
   2  -4  -5 2738.77 220.980  -2
  -2  -2  -3 2738.77 220.980   1
   2  -4  -4 1370.35 175.947  -2
  -2  -2  -2 1370.35 175.947   1
   2  -4  -3 37599.1 382.874  -2
  -2  -2  -1 37599.1 382.874   1
   2  -4  -2 975.845 112.521  -2
  -2  -2   0 975.845 112.521   1
   2  -4  -1 15700.9 249.494  -2
  -2  -2   1 15700.9 249.494   1
  -2  -2   1 5198.77 231.446   1
   2  -4   0 8275.71 232.770  -2
  -2  -2   2 8275.71 232.770   1
  -2  -2   2 6112.45 194.758   1
   2  -4   1 5943.01 163.480  -2
  -2  -2   3 5943.01 163.480   1
  -2  -2   3 1626.94 191.608   1
   2  -4   2 7413.53 175.956  -2
  -2  -2   4 7413.53 175.956   1
  -2  -2   4 4553.83 303.857   1
   2  -4   3 37925.6 443.661  -2
  -2  -2   5 37925.6 443.661   1
  -2  -2   5 16189.7 568.731   1
   2  -4   4 5681.62 250.797  -2
  -2  -2   6 5681.62 250.797   1
   2  -4   5 20640.9 432.977  -2
  -2  -2   7 20640.9 432.977   1
   2  -4   6 4127.05 261.294  -2
  -2  -2   8 4127.05 261.294   1
   2  -4   7 14096.7 413.549  -2
  -2  -2   9 14096.7 413.549   1
   2  -4   8 9801.61 391.722  -2
  -2  -2  10 9801.61 391.722   1
   2  -4   9 14316.4 488.547  -2
  -2  -2  11 14316.4 488.547   1
   2  -4  10 2292.64 303.448  -2
  -2  -2  12 2292.64 303.448   1
   2  -4  11 9653.98 476.346  -2
  -2  -2  13 9653.98 476.346   1
   2  -4  12 1164.47 300.471  -2
  -2  -2  14 1164.47 300.471   1
   2  -4  13 8660.96 502.762  -2
  -2  -2  15 8660.96 502.762   1
   2  -4  14 2007.53 371.081  -2
  -2  -2  16 2007.53 371.081   1
   2  -4  15 7685.27 525.512  -2
  -2  -2  17 7685.27 525.512   1
   2  -4  16 1040.79 754.403  -2
  -2  -2  18 1040.79 754.403   1
   2  -4  17 2373.50 815.110  -2
  -2  -2  19 2373.50 815.110   1
   2  -4  18 292.801 801.954  -2
  -2  -2  20 292.801 801.954   1
  -2  -1 -17 1192.84 540.324   1
   2  -3 -18 4076.78 547.000  -2
  -2  -1 -16 4076.78 547.000   1
   2  -3 -17 324.780 417.582  -2
  -2  -1 -15 324.780 417.582   1
   2  -3 -16 5930.31 470.252  -2
  -2  -1 -14 5930.31 470.252   1
   2  -3 -15 481.851 317.871  -2
  -2  -1 -13 481.851 317.871   1
   2  -3 -14 5478.98 412.487  -2
  -2  -1 -12 5478.98 412.487   1
   2  -3 -13 1216.85 295.284  -2
  -2  -1 -11 1216.85 295.284   1
   2  -3 -12 6421.58 390.940  -2
  -2  -1 -10 6421.58 390.940   1
   2  -3 -11 1056.14 156.137  -2
  -2  -1  -9 1056.14 156.137   1
   2  -3 -10 20254.5 343.204  -2
  -2  -1  -8 20254.5 343.204   1
   2  -3  -9 1119.41 210.520  -2
  -2  -1  -7 1119.41 210.520   1
   2  -3  -8 16759.6 505.708  -2
  -2  -1  -6 16759.6 505.708   1
   2  -3  -7 4548.71 293.857  -2
  -2  -1  -5 4548.71 293.857   1
   2  -3  -6 6340.74 293.537  -2
  -2  -1  -4 6340.74 293.537   1
   2  -3  -5 3615.97 218.486  -2
  -2  -1  -3 3615.97 218.486   1
   2  -3  -4 6015.66 184.526  -2
  -2  -1  -2 6015.66 184.526   1
   2  -3  -3 12432.2 213.441  -2
  -2  -1  -1 12432.2 213.441   1
   2  -3  -2 25115.1 252.073  -2
  -2  -1   0 25115.1 252.073   1
   2  -3  -1 16902.1 176.682  -2
  -2  -1   1 16902.1 176.682   1
  -2  -1   1 6870.30 210.343   1
   2  -3   0 21066.2 467.548  -2
  -2  -1   2 21066.2 467.548   1
  -2  -1   2 10669.7 186.953   1
   2  -3   1 7615.33 287.866  -2
  -2  -1   3 7615.33 287.866   1
  -2  -1   3 2923.67 121.687   1
   2  -3   2 4110.22 141.753  -2
  -2  -1   4 4110.22 141.753   1
  -2  -1   4 1792.76 165.315   1
   2  -3   3 6949.71 186.767  -2
  -2  -1   5 6949.71 186.767   1
  -2  -1   5 2180.47 223.392   1
   2  -3   4 12771.6 299.577  -2
  -2  -1   6 12771.6 299.577   1
   2  -3   5 821.300 167.374  -2
  -2  -1   7 821.300 167.374   1
   2  -3   6 10373.9 332.593  -2
  -2  -1   8 10373.9 332.593   1
   2  -3   7 5802.53 293.934  -2
  -2  -1   9 5802.53 293.934   1
   2  -3   8 7243.06 342.231  -2
  -2  -1  10 7243.06 342.231   1
   2  -3   9 4205.05 314.517  -2
  -2  -1  11 4205.05 314.517   1
  -2  -1  11 648.071 148.768   1
   2  -3  10 6874.55 393.169  -2
  -2  -1  12 6874.55 393.169   1
  -2  -1  12 4208.09 244.354   1
   2  -3  11 1626.67 284.061  -2
  -2  -1  13 1626.67 284.061   1
   2  -3  12 6102.57 405.659  -2
  -2  -1  14 6102.57 405.659   1
   2  -3  13 1490.18 308.282  -2
  -2  -1  15 1490.18 308.282   1
   2  -3  14 9610.59 533.682  -2
  -2  -1  16 9610.59 533.682   1
   2  -3  15 1917.51 708.402  -2
  -2  -1  17 1917.51 708.402   1
   2  -3  16 3948.88 854.003  -2
  -2  -1  18 3948.88 854.003   1
   2  -3  17 1950.39 846.972  -2
  -2  -1  19 1950.39 846.972   1
   2  -3  18 3223.10 872.947  -2
  -2  -1  20 3223.10 872.947   1
   2  -2 -19 3444.84 544.083  -2
  -2   0 -17 3444.84 544.083   1
   2  -2 -18 1633.25 460.229  -2
  -2   0 -16 1633.25 460.229   1
   2  -2 -17 7319.10 585.690  -2
  -2   0 -15 7319.10 585.690   1
   2  -2 -16 646.793 387.569  -2
  -2   0 -14 646.793 387.569   1
   2  -2 -15 5281.55 471.243  -2
  -2   0 -13 5281.55 471.243   1
   2  -2 -14 722.796 306.030  -2
  -2   0 -12 722.796 306.030   1
   2  -2 -13 7128.89 421.227  -2
  -2   0 -11 7128.89 421.227   1
   2  -2 -12 878.367 272.544  -2
  -2   0 -10 878.367 272.544   1
   2  -2 -11 9066.93 255.237  -2
  -2   0  -9 9066.93 255.237   1
   2  -2 -10 2176.46 165.726  -2
  -2   0  -8 2176.46 165.726   1
   2  -2  -9 18670.5 342.410  -2
  -2   0  -7 18670.5 342.410   1
   2  -2  -8 312.337 141.800  -2
  -2   0  -6 312.337 141.800   1
   2  -2  -7 22304.9 344.357  -2
  -2   0  -5 22304.9 344.357   1
   2  -2  -6 1591.99 195.630  -2
  -2   0  -4 1591.99 195.630   1
   2  -2  -5 3816.91 209.495  -2
  -2   0  -3 3816.91 209.495   1
   2  -2  -4 5350.66 202.049  -2
  -2   0  -2 5350.66 202.049   1
  -2   0  -2 3055.59 215.084   1
   2  -2  -3 17037.1 256.757  -2
  -2   0  -1 17037.1 256.757   1
  -2   0  -1 6542.57 201.867   1
   2  -2  -2 630.190 84.6640  -2
  -2   0   0 630.190 84.6640   1
  -2   0   0 302.714 111.192   1
   2  -2  -1 17098.8 313.009  -2
  -2   0   1 17098.8 313.009   1
  -2   0   1 8698.39 129.060   1
   2  -2   0 2535.47 211.839  -2
  -2   0   2 2535.47 211.839   1
  -2   0   2 1744.14 85.2727   1
   2  -2   1 14511.7 313.117  -2
  -2   0   3 14511.7 313.117   1
  -2   0   3 5324.11 109.712   1
   2  -2   2 20459.2 272.927  -2
  -2   0   4 20459.2 272.927   1
  -2   0   4 11946.0 191.281   1
   2  -2   3 5157.61 188.187  -2
  -2   0   5 5157.61 188.187   1
  -2   0   5 3327.35 184.755   1
   2  -2   4 514.152 121.618  -2
  -2   0   6 514.152 121.618   1
   2  -2   5 15951.9 324.074  -2
  -2   0   7 15951.9 324.074   1
  -2   0   7 10707.3 348.438   1
   2  -2   6 486.081 161.122  -2
  -2   0   8 486.081 161.122   1
  -2   0   8 151.575 124.796   1
   2  -2   7 26185.4 497.545  -2
  -2   0   9 26185.4 497.545   1
  -2   0   9 13702.0 379.496   1
   2  -2   8 530.470 106.448  -2
  -2   0  10 530.470 106.448   1
   2  -2   9 4741.56 187.049  -2
  -2   0  11 4741.56 187.049   1
   2  -2  10 2475.10 156.832  -2
  -2   0  12 2475.10 156.832   1
   2  -2  11 10325.8 448.382  -2
  -2   0  13 10325.8 448.382   1
   2  -2  12 660.974 286.558  -2
  -2   0  14 660.974 286.558   1
   2  -2  13 7969.51 545.084  -2
  -2   0  15 7969.51 545.084   1
   2  -2  14 1162.82 631.075  -2
  -2   0  16 1162.82 631.075   1
   2  -2  15 6991.47 905.089  -2
  -2   0  17 6991.47 905.089   1
   2  -2  16 710.354 724.516  -2
  -2   0  18 710.354 724.516   1
   2  -2  17 5464.85 960.614  -2
  -2   0  19 5464.85 960.614   1
   2  -2  18 787.141 841.793  -2
  -2   0  20 787.141 841.793   1
   2  -1 -19 863.351 450.262  -2
  -2   1 -17 863.351 450.262   1
   2  -1 -18 5778.02 565.157  -2
  -2   1 -16 5778.02 565.157   1
   2  -1 -17 377.058 398.597  -2
  -2   1 -15 377.058 398.597   1
   2  -1 -16 8019.42 557.203  -2
  -2   1 -14 8019.42 557.203   1
   2  -1 -15 814.844 346.469  -2
  -2   1 -13 814.844 346.469   1
   2  -1 -14 4985.65 428.513  -2
  -2   1 -12 4985.65 428.513   1
   2  -1 -13 1361.26 329.148  -2
  -2   1 -11 1361.26 329.148   1
   2  -1 -12 5516.59 203.370  -2
  -2   1 -10 5516.59 203.370   1
   2  -1 -11 1894.03 155.781  -2
  -2   1  -9 1894.03 155.781   1
   2  -1 -10 16963.4 330.202  -2
  -2   1  -8 16963.4 330.202   1
   2  -1  -9 1614.93 151.156  -2
  -2   1  -7 1614.93 151.156   1
   2  -1  -8 14315.6 339.750  -2
  -2   1  -6 14315.6 339.750   1
  -2   1  -6 5535.51 174.006   1
   2  -1  -7 2892.51 197.255  -2
  -2   1  -5 2892.51 197.255   1
  -2   1  -5 1844.85 119.159   1
   2  -1  -6 11327.1 308.896  -2
  -2   1  -4 11327.1 308.896   1
  -2   1  -4 4160.16 159.105   1
   2  -1  -5 2029.19 194.290  -2
  -2   1  -3 2029.19 194.290   1
  -2   1  -3 1722.16 121.780   1
   2  -1  -4 650.976 382.030  -2
  -2   1  -2 650.976 382.030   1
  -2   1  -2 756.033 87.9710   1
  -2   1  -1 3243.47 118.896   1
  -2   1   0 13050.4 198.924   1
  -2   1   1 2498.22 158.985   1
  -2   1   2 14732.4 124.755   1
   2  -1   1 10176.4 225.095  -2
  -2   1   3 10176.4 225.095   1
  -2   1   3 6825.75 94.3653   1
   2  -1   2 1063.91 120.374  -2
  -2   1   4 1063.91 120.374   1
  -2   1   4 442.545 59.7235   1
   2  -1   3 1827.57 95.0707  -2
  -2   1   5 1827.57 95.0707   1
  -2   1   5-9.79655 83.6210   1
   2  -1   4 10085.3 136.762  -2
  -2   1   6 10085.3 136.762   1
  -2   1   6 6257.64 266.128   1
   2  -1   5 2569.48 107.793  -2
  -2   1   7 2569.48 107.793   1
  -2   1   7 834.598 150.046   1
   2  -1   6 13676.8 173.831  -2
  -2   1   8 13676.8 173.831   1
  -2   1   8 7766.06 282.601   1
   2  -1   7 1940.88 110.171  -2
  -2   1   9 1940.88 110.171   1
   2  -1   8 17926.5 260.953  -2
  -2   1  10 17926.5 260.953   1
   2  -1   9 2010.53 129.911  -2
  -2   1  11 2010.53 129.911   1
   2  -1  10 6182.16 209.152  -2
  -2   1  12 6182.16 209.152   1
   2  -1  11 2435.65 311.183  -2
  -2   1  13 2435.65 311.183   1
   2  -1  12 7204.58 460.320  -2
  -2   1  14 7204.58 460.320   1
   2  -1  13 643.573 300.041  -2
  -2   1  15 643.573 300.041   1
   2  -1  17 550.733 759.205  -2
  -2   1  19 550.733 759.205   1
  -2   2 -18 518.667 339.063   1
   2   0 -19 3963.69 549.275  -2
  -2   2 -17 3963.69 549.275   1
   2   0 -18 864.050 417.740  -2
  -2   2 -16 864.050 417.740   1
   2   0 -17 5823.97 523.716  -2
  -2   2 -15 5823.97 523.716   1
   2   0 -16 1040.13 375.123  -2
  -2   2 -14 1040.13 375.123   1
   2   0 -15 6265.95 481.696  -2
  -2   2 -13 6265.95 481.696   1
   2   0 -14 156.534 238.029  -2
  -2   2 -12 156.534 238.029   1
   2   0 -13 7786.02 655.302  -2
  -2   2 -11 7786.02 655.302   1
   2   0 -12 2207.72 172.903  -2
  -2   2 -10 2207.72 172.903   1
   2   0 -11 4537.19 212.655  -2
  -2   2  -9 4537.19 212.655   1
  -2   2  -9 1581.08 106.145   1
   2   0 -10 588.115 141.108  -2
  -2   2  -8 588.115 141.108   1
  -2   2  -8 213.602 81.7610   1
   2   0  -9 28901.3 532.045  -2
  -2   2  -7 28901.3 532.045   1
  -2   2  -7 13577.0 261.822   1
   2   0  -8 585.814 155.563  -2
  -2   2  -6 585.814 155.563   1
  -2   2  -6 163.381 80.0243   1
   2   0  -7 18152.3 388.631  -2
  -2   2  -5 18152.3 388.631   1
  -2   2  -5 6352.99 191.712   1
   2   0  -6 646.109 166.260  -2
  -2   2  -4 646.109 166.260   1
  -2   2  -4 318.513 93.9999   1
   2   0  -5 5002.93 237.032  -2
  -2   2  -3 5002.93 237.032   1
  -2   2  -3 1525.23 119.118   1
  -2   2  -2 8460.79 170.601   1
  -2   2  -1 9165.27 174.727   1
  -2   2   0 561.188 130.778   1
   2   0  -1 17067.9 245.616  -2
  -2   2   1 17067.9 245.616   1
  -2   2   1 8167.57 178.270   1
   2   0   0 674.102 109.317  -2
  -2   2   2 674.102 109.317   1
  -2   2   2 333.158 66.4648   1
   2   0   1 16906.0 216.925  -2
  -2   2   3 16906.0 216.925   1
  -2   2   3 10989.0 181.745   1
   2   0   2 5124.53 138.883  -2
  -2   2   4 5124.53 138.883   1
  -2   2   4 2169.64 124.224   1
   2   0   3 3870.88 131.751  -2
  -2   2   5 3870.88 131.751   1
  -2   2   5 1863.24 176.907   1
   2   0   4 1537.82 111.494  -2
  -2   2   6 1537.82 111.494   1
  -2   2   6 189.517 129.700   1
   2   0   5 21521.3 160.226  -2
  -2   2   7 21521.3 160.226   1
   2   0   6 256.223 61.4961  -2
  -2   2   8 256.223 61.4961   1
   2   0   7 17750.3 182.874  -2
  -2   2   9 17750.3 182.874   1
   2   0   8 2008.23 91.0037  -2
  -2   2  10 2008.23 91.0037   1
   2   0   9 9380.53 207.015  -2
  -2   2  11 9380.53 207.015   1
   2   0  10 984.026 137.550  -2
  -2   2  12 984.026 137.550   1
   2   0  11 8392.20 433.345  -2
  -2   2  13 8392.20 433.345   1
   2   0  12 1088.98 274.019  -2
  -2   2  14 1088.98 274.019   1
   2   1 -20 2996.19 518.889  -2
  -2   3 -18 2996.19 518.889   1
   2   1 -19 1558.89 453.336  -2
  -2   3 -17 1558.89 453.336   1
   2   1 -18 3402.45 488.079  -2
  -2   3 -16 3402.45 488.079   1
   2   1 -17 1103.64 394.516  -2
  -2   3 -15 1103.64 394.516   1
   2   1 -16 7937.72 532.959  -2
  -2   3 -14 7937.72 532.959   1
   2   1 -15 1077.86 343.261  -2
  -2   3 -13 1077.86 343.261   1
   2   1 -14 4562.58 404.950  -2
  -2   3 -12 4562.58 404.950   1
   2   1 -13 445.196 433.323  -2
  -2   3 -11 445.196 433.323   1
  -2   3 -11 985.082 140.476   1
   2   1 -12 5762.95 249.127  -2
  -2   3 -10 5762.95 249.127   1
  -2   3 -10 2312.66 130.441   1
   2   1 -11 3872.22 220.999  -2
  -2   3  -9 3872.22 220.999   1
  -2   3  -9 3352.84 151.051   1
   2   1 -10 6908.73 266.237  -2
  -2   3  -8 6908.73 266.237   1
  -2   3  -8 4337.72 169.244   1
   2   1  -9 5828.02 292.588  -2
  -2   3  -7 5828.02 292.588   1
  -2   3  -7 4816.57 178.109   1
   2   1  -8 11208.7 381.371  -2
  -2   3  -6 11208.7 381.371   1
  -2   3  -6 6228.03 197.150   1
   2   1  -7 814.150 191.651  -2
  -2   3  -5 814.150 191.651   1
  -2   3  -5 539.941 98.8315   1
   2   1  -6 12534.5 281.234  -2
  -2   3  -4 12534.5 281.234   1
  -2   3  -4 4864.07 256.705   1
   2   1  -5 7166.19 321.148  -2
  -2   3  -3 7166.19 321.148   1
  -2   3  -3 4541.67 175.808   1
   2   1  -4 3715.87 275.294  -2
  -2   3  -2 3715.87 275.294   1
  -2   3  -2 1987.70 88.3532   1
  -2   3  -1 4435.13 100.396   1
   2   1  -2 23300.3 513.229  -2
  -2   3   0 23300.3 513.229   1
  -2   3   0 10884.3 155.667   1
   2   1  -1 17015.8 268.804  -2
  -2   3   1 17015.8 268.804   1
  -2   3   1 8892.43 111.834   1
   2   1   0 26248.2 257.548  -2
  -2   3   2 26248.2 257.548   1
  -2   3   2 9345.33 142.797   1
   2   1   1 12527.7 177.372  -2
  -2   3   3 12527.7 177.372   1
  -2   3   3 4928.78 120.452   1
   2   1   2 5150.05 142.522  -2
  -2   3   4 5150.05 142.522   1
  -2   3   4 3964.80 237.143   1
   2   1   3 3667.14 120.582  -2
  -2   3   5 3667.14 120.582   1
   2   1   4 6544.82 105.964  -2
  -2   3   6 6544.82 105.964   1
   2   1   5 4106.08 87.6045  -2
  -2   3   7 4106.08 87.6045   1
   2   1   6 17340.4 168.314  -2
  -2   3   8 17340.4 168.314   1
   2   1   7 1276.60 79.2312  -2
  -2   3   9 1276.60 79.2312   1
   2   1   8 19514.8 201.531  -2
  -2   3  10 19514.8 201.531   1
   2   1   9 1085.84 116.500  -2
  -2   3  11 1085.84 116.500   1
   2   1  10 7921.69 238.683  -2
  -2   3  12 7921.69 238.683   1
   2   1  11 1635.41 263.888  -2
  -2   3  13 1635.41 263.888   1
   2   2 -20 242.365 332.381  -2
  -2   4 -18 242.365 332.381   1
   2   2 -19 2965.89 478.600  -2
  -2   4 -17 2965.89 478.600   1
   2   2 -18 1358.93 418.299  -2
  -2   4 -16 1358.93 418.299   1
   2   2 -17 6769.48 531.725  -2
  -2   4 -15 6769.48 531.725   1
   2   2 -16 1994.74 382.318  -2
  -2   4 -14 1994.74 382.318   1
   2   2 -15 7530.75 500.134  -2
  -2   4 -13 7530.75 500.134   1
   2   2 -14 992.977 308.991  -2
  -2   4 -12 992.977 308.991   1
  -2   4 -12 288.558 126.325   1
   2   2 -13 7711.82 642.009  -2
  -2   4 -11 7711.82 642.009   1
  -2   4 -11 4543.62 257.919   1
   2   2 -12 1284.95 419.657  -2
  -2   4 -10 1284.95 419.657   1
  -2   4 -10 1579.04 180.123   1
   2   2 -11 12750.0 667.511  -2
  -2   4  -9 12750.0 667.511   1
  -2   4  -9 5723.23 291.184   1
   2   2 -10 8107.41 546.700  -2
  -2   4  -8 8107.41 546.700   1
  -2   4  -8 4354.36 257.808   1
   2   2  -9 14234.3 435.940  -2
  -2   4  -7 14234.3 435.940   1
   2   2  -8 4809.73 293.958  -2
  -2   4  -6 4809.73 293.958   1
   2   2  -7 20720.5 522.931  -2
  -2   4  -5 20720.5 522.931   1
  -2   4  -4 3664.66 253.196   1
  -2   4  -3 18433.9 455.566   1
  -2   4  -2 2052.44 184.417   1
   2   2  -3 6483.02 319.704  -2
  -2   4  -1 6483.02 319.704   1
  -2   4  -1 3738.46 216.174   1
   2   2  -2 9732.90 345.605  -2
  -2   4   0 9732.90 345.605   1
  -2   4   0 2100.66 93.7563   1
   2   2  -1 16211.2 194.800  -2
  -2   4   1 16211.2 194.800   1
  -2   4   1 10004.9 220.574   1
   2   2   0 842.927 85.7030  -2
  -2   4   2 842.927 85.7030   1
  -2   4   2 629.264 143.349   1
   2   2   1 37961.9 349.297  -2
  -2   4   3 37961.9 349.297   1
   2   2   2 1351.95 103.452  -2
  -2   4   4 1351.95 103.452   1
   2   2   3 2716.40 120.126  -2
  -2   4   5 2716.40 120.126   1
   2   2   4 3070.78 125.727  -2
  -2   4   6 3070.78 125.727   1
   2   2   5 10402.1 204.292  -2
  -2   4   7 10402.1 204.292   1
   2   2   6 762.106 107.114  -2
  -2   4   8 762.106 107.114   1
   2   2   7 15939.8 229.485  -2
  -2   4   9 15939.8 229.485   1
   2   2   8 1832.81 145.846  -2
  -2   4  10 1832.81 145.846   1
   2   2   9 7643.79 232.417  -2
  -2   4  11 7643.79 232.417   1
   2   2  10 5405.34 225.448  -2
  -2   4  12 5405.34 225.448   1
   2   3 -20 1230.20 457.356  -2
  -2   5 -18 1230.20 457.356   1
   2   3 -19 999.628 429.305  -2
  -2   5 -17 999.628 429.305   1
   2   3 -18 4303.29 486.622  -2
  -2   5 -16 4303.29 486.622   1
   2   3 -17 1926.83 399.978  -2
  -2   5 -15 1926.83 399.978   1
   2   3 -16 8404.19 525.703  -2
  -2   5 -14 8404.19 525.703   1
   2   3 -15 2038.05 365.190  -2
  -2   5 -13 2038.05 365.190   1
   2   3 -14 2009.94 473.669  -2
  -2   5 -12 2009.94 473.669   1
  -2   5 -12 1636.95 200.286   1
   2   3 -13 1050.11 431.479  -2
  -2   5 -11 1050.11 431.479   1
  -2   5 -11 1203.79 190.882   1
   2   3 -12 4339.50 258.274  -2
  -2   5 -10 4339.50 258.274   1
   2   3 -11 2383.28 219.694  -2
  -2   5  -9 2383.28 219.694   1
   2   3 -10 5932.86 280.669  -2
  -2   5  -8 5932.86 280.669   1
  -2   5  -6 5811.56 349.119   1
   2   3  -7 4253.23 327.757  -2
  -2   5  -5 4253.23 327.757   1
  -2   5  -4 1399.95 197.926   1
  -2   5  -3 1810.94 205.480   1
  -2   5  -2 340.805 160.741   1
   2   3  -3 687.499 214.049  -2
  -2   5  -1 687.499 214.049   1
  -2   5  -1 419.794 165.060   1
   2   3  -2 2402.19 111.483  -2
  -2   5   0 2402.19 111.483   1
  -2   5   0 1755.23 182.643   1
   2   3  -1 623.094 109.783  -2
  -2   5   1 623.094 109.783   1
  -2   5   1 537.945 142.054   1
   2   3   0 14638.1 209.780  -2
  -2   5   2 14638.1 209.780   1
   2   3   1 1371.83 128.121  -2
  -2   5   3 1371.83 128.121   1
   2   3   2 19580.9 350.848  -2
  -2   5   4 19580.9 350.848   1
   2   3   3 1310.39 145.183  -2
  -2   5   5 1310.39 145.183   1
   2   3   4 3479.54 180.588  -2
  -2   5   6 3479.54 180.588   1
   2   3   5 297.654 107.623  -2
  -2   5   7 297.654 107.623   1
   2   3   6 10716.0 247.190  -2
  -2   5   8 10716.0 247.190   1
   2   3   7 594.506 189.548  -2
  -2   5   9 594.506 189.548   1
   2   3   8 20975.2 502.505  -2
  -2   5  10 20975.2 502.505   1
   2   3   9 909.474 149.596  -2
  -2   5  11 909.474 149.596   1
   2   3  10 7319.86 336.483  -2
  -2   5  12 7319.86 336.483   1
   2   4 -20 672.860 457.869  -2
  -2   6 -18 672.860 457.869   1
   2   4 -19 2185.52 458.017  -2
  -2   6 -17 2185.52 458.017   1
   2   4 -18 425.195 386.499  -2
  -2   6 -16 425.195 386.499   1
   2   4 -17 4084.41 456.253  -2
  -2   6 -15 4084.41 456.253   1
   2   4 -16 1743.66 369.036  -2
  -2   6 -14 1743.66 369.036   1
   2   4 -15 8852.89 506.632  -2
  -2   6 -13 8852.89 506.632   1
   2   4 -14 1180.26 442.699  -2
  -2   6 -12 1180.26 442.699   1
  -2   6 -12 1085.52 201.856   1
   2   4 -13 2121.88 464.283  -2
  -2   6 -11 2121.88 464.283   1
  -2   6 -11 1467.40 216.529   1
   2   4 -12 907.838 384.492  -2
  -2   6 -10 907.838 384.492   1
   2   4 -11 4585.50 471.380  -2
  -2   6  -9 4585.50 471.380   1
   2   4 -10 2878.09 385.509  -2
  -2   6  -8 2878.09 385.509   1
   2   4  -9 16805.1 471.398  -2
  -2   6  -7 16805.1 471.398   1
   2   4  -8 2464.84 336.501  -2
  -2   6  -6 2464.84 336.501   1
   2   4  -7 3103.51 336.303  -2
  -2   6  -5 3103.51 336.303   1
  -2   6  -4 1189.71 229.595   1
   2   4  -5 11810.6 473.711  -2
  -2   6  -3 11810.6 473.711   1
   2   4  -4 787.030 262.246  -2
  -2   6  -2 787.030 262.246   1
  -2   6  -2 822.651 168.134   1
   2   4  -3 10163.8 278.479  -2
  -2   6  -1 10163.8 278.479   1
   2   4  -2 4092.07 142.312  -2
  -2   6   0 4092.07 142.312   1
  -2   6   0 2854.38 223.565   1
   2   4  -1 15244.1 245.620  -2
  -2   6   1 15244.1 245.620   1
   2   4   0 2439.94 143.907  -2
  -2   6   2 2439.94 143.907   1
   2   4   1 12022.3 245.101  -2
  -2   6   3 12022.3 245.101   1
   2   4   2 6441.76 259.695  -2
  -2   6   4 6441.76 259.695   1
   2   4   3 9083.53 287.839  -2
  -2   6   5 9083.53 287.839   1
   2   4   4 2582.26 192.545  -2
  -2   6   6 2582.26 192.545   1
   2   4   5 11108.0 590.129  -2
  -2   6   7 11108.0 590.129   1
   2   4   6 954.879 377.336  -2
  -2   6   8 954.879 377.336   1
   2   4   7 7962.72 359.049  -2
  -2   6   9 7962.72 359.049   1
   2   4   8 1804.92 245.914  -2
  -2   6  10 1804.92 245.914   1
   2   4   9 10814.1 412.003  -2
  -2   6  11 10814.1 412.003   1
   2   4  10 533.238 472.269  -2
  -2   6  12 533.238 472.269   1
   2   4  11 3452.40 606.837  -2
  -2   6  13 3452.40 606.837   1
   2   5 -20 1868.53 462.443  -2
  -2   7 -18 1868.53 462.443   1
   2   5 -19 1208.68 414.514  -2
  -2   7 -17 1208.68 414.514   1
   2   5 -18 1903.46 414.548  -2
  -2   7 -16 1903.46 414.548   1
   2   5 -17 1378.79 378.410  -2
  -2   7 -15 1378.79 378.410   1
   2   5 -16 6144.68 463.748  -2
  -2   7 -14 6144.68 463.748   1
   2   5 -15 4133.03 395.047  -2
  -2   7 -13 4133.03 395.047   1
   2   5 -14 5120.87 394.637  -2
  -2   7 -12 5120.87 394.637   1
   2   5 -13 495.665 401.306  -2
  -2   7 -11 495.665 401.306   1
   2   5 -12 2393.74 437.770  -2
  -2   7 -10 2393.74 437.770   1
   2   5 -11 1059.35 255.024  -2
  -2   7  -9 1059.35 255.024   1
   2   5 -10 2940.67 293.342  -2
  -2   7  -8 2940.67 293.342   1
   2   5  -9 2364.92 248.705  -2
  -2   7  -7 2364.92 248.705   1
   2   5  -8 12010.2 577.234  -2
  -2   7  -6 12010.2 577.234   1
   2   5  -7 1437.66 310.805  -2
  -2   7  -5 1437.66 310.805   1
   2   5  -6 8980.18 504.794  -2
  -2   7  -4 8980.18 504.794   1
   2   5  -5 5360.32 422.660  -2
  -2   7  -3 5360.32 422.660   1
   2   5  -4 5186.51 238.008  -2
  -2   7  -2 5186.51 238.008   1
   2   5  -3 665.276 150.391  -2
  -2   7  -1 665.276 150.391   1
  -2   7  -1 312.567 144.181   1
   2   5  -2 5756.88 164.584  -2
  -2   7   0 5756.88 164.584   1
   2   5  -1 3643.42 152.815  -2
  -2   7   1 3643.42 152.815   1
   2   5   0 6456.77 228.762  -2
  -2   7   2 6456.77 228.762   1
   2   5   1 521.761 151.771  -2
  -2   7   3 521.761 151.771   1
   2   5   2 20153.1 472.192  -2
  -2   7   4 20153.1 472.192   1
   2   5   3 2511.63 368.643  -2
  -2   7   5 2511.63 368.643   1
   2   5   4 4407.59 470.651  -2
  -2   7   6 4407.59 470.651   1
   2   5   5 332.918 360.388  -2
  -2   7   7 332.918 360.388   1
   2   5   6 7070.80 588.260  -2
  -2   7   8 7070.80 588.260   1
   2   5   7 706.799 402.359  -2
  -2   7   9 706.799 402.359   1
   2   5   8 9034.34 409.386  -2
  -2   7  10 9034.34 409.386   1
   2   5   9 90.9591 197.224  -2
  -2   7  11 90.9591 197.224   1
   2   5  10 6800.24 719.675  -2
  -2   7  12 6800.24 719.675   1
   2   5  11 1028.01 542.129  -2
  -2   7  13 1028.01 542.129   1
   2   5  12 4335.10 753.485  -2
  -2   7  14 4335.10 753.485   1
  -2   8 -18 396.592 480.318   1
   2   6 -19 1992.31 430.683  -2
  -2   8 -17 1992.31 430.683   1
   2   6 -18 1154.81 373.961  -2
  -2   8 -16 1154.81 373.961   1
   2   6 -17 3131.30 407.248  -2
  -2   8 -15 3131.30 407.248   1
   2   6 -16 1585.05 350.389  -2
  -2   8 -14 1585.05 350.389   1
   2   6 -15 7143.85 456.034  -2
  -2   8 -13 7143.85 456.034   1
   2   6 -14 2382.80 324.283  -2
  -2   8 -12 2382.80 324.283   1
   2   6 -13 2611.29 458.744  -2
  -2   8 -11 2611.29 458.744   1
   2   6 -12 501.405 262.940  -2
  -2   8 -10 501.405 262.940   1
   2   6 -11 4226.55 346.158  -2
  -2   8  -9 4226.55 346.158   1
   2   6 -10 1478.41 261.888  -2
  -2   8  -8 1478.41 261.888   1
   2   6  -9 4155.47 305.915  -2
  -2   8  -7 4155.47 305.915   1
   2   6  -8 3365.47 262.493  -2
  -2   8  -6 3365.47 262.493   1
   2   6  -7 9837.86 598.625  -2
  -2   8  -5 9837.86 598.625   1
   2   6  -6 1002.38 351.346  -2
  -2   8  -4 1002.38 351.346   1
   2   6  -5 7426.81 279.586  -2
  -2   8  -3 7426.81 279.586   1
   2   6  -4 443.324 155.826  -2
  -2   8  -2 443.324 155.826   1
   2   6  -3 2070.08 176.275  -2
  -2   8  -1 2070.08 176.275   1
   2   6  -2 1975.39 125.609  -2
  -2   8   0 1975.39 125.609   1
   2   6  -1 11673.1 236.021  -2
  -2   8   1 11673.1 236.021   1
   2   6   0 1840.70 173.361  -2
  -2   8   2 1840.70 173.361   1
   2   6   1 10829.5 308.030  -2
  -2   8   3 10829.5 308.030   1
   2   6   2 1478.53 247.985  -2
  -2   8   4 1478.53 247.985   1
   2   6   3 8224.95 380.552  -2
  -2   8   5 8224.95 380.552   1
   2   6   4 776.642 255.382  -2
  -2   8   6 776.642 255.382   1
   2   6   5 3588.91 501.972  -2
  -2   8   7 3588.91 501.972   1
   2   6   6 747.836 426.090  -2
  -2   8   8 747.836 426.090   1
   2   6   7 9390.27 708.532  -2
  -2   8   9 9390.27 708.532   1
   2   6   8 591.845 488.492  -2
  -2   8  10 591.845 488.492   1
   2   6   9 10309.2 815.338  -2
  -2   8  11 10309.2 815.338   1
   2   6  10 787.502 525.074  -2
  -2   8  12 787.502 525.074   1
   2   6  11 4663.57 709.281  -2
  -2   8  13 4663.57 709.281   1
   2   6  12-60.9012 622.846  -2
  -2   8  14-60.9012 622.846   1
   2   7 -19 1015.67 393.610  -2
  -2   9 -17 1015.67 393.610   1
   2   7 -18 1626.93 379.133  -2
  -2   9 -16 1626.93 379.133   1
   2   7 -17 968.791 348.102  -2
  -2   9 -15 968.791 348.102   1
   2   7 -16 2838.02 385.740  -2
  -2   9 -14 2838.02 385.740   1
   2   7 -15 2277.36 340.076  -2
  -2   9 -13 2277.36 340.076   1
   2   7 -14 5646.84 386.413  -2
  -2   9 -12 5646.84 386.413   1
   2   7 -13 1086.59 304.025  -2
  -2   9 -11 1086.59 304.025   1
   2   7 -12 1531.12 287.302  -2
  -2   9 -10 1531.12 287.302   1
   2   7 -11 2059.13 291.158  -2
  -2   9  -9 2059.13 291.158   1
   2   7 -10 1513.31 258.527  -2
  -2   9  -8 1513.31 258.527   1
   2   7  -9 994.483 233.135  -2
  -2   9  -7 994.483 233.135   1
   2   7  -8 10291.7 390.506  -2
  -2   9  -6 10291.7 390.506   1
   2   7  -7 2369.29 237.192  -2
  -2   9  -5 2369.29 237.192   1
   2   7  -6 2660.89 431.215  -2
  -2   9  -4 2660.89 431.215   1
   2   7  -5 1452.45 191.479  -2
  -2   9  -3 1452.45 191.479   1
   2   7  -4 6235.63 197.160  -2
  -2   9  -2 6235.63 197.160   1
   2   7  -3 882.863 156.019  -2
  -2   9  -1 882.863 156.019   1
   2   7  -2 2285.44 134.761  -2
  -2   9   0 2285.44 134.761   1
   2   7  -1 1485.68 134.438  -2
  -2   9   1 1485.68 134.438   1
   2   7   0 6160.43 246.170  -2
  -2   9   2 6160.43 246.170   1
   2   7   1 2043.95 367.852  -2
  -2   9   3 2043.95 367.852   1
   2   7   2 9359.21 413.287  -2
  -2   9   4 9359.21 413.287   1
   2   7   3 1949.75 295.208  -2
  -2   9   5 1949.75 295.208   1
   2   7   4 4272.57 351.790  -2
  -2   9   6 4272.57 351.790   1
   2   7   5 348.634 281.098  -2
  -2   9   7 348.634 281.098   1
   2   7   6 5599.44 625.107  -2
  -2   9   8 5599.44 625.107   1
   2   7   7 626.272 483.304  -2
  -2   9   9 626.272 483.304   1
   2   7   8 8865.94 764.872  -2
  -2   9  10 8865.94 764.872   1
   2   7   9 678.717 548.097  -2
  -2   9  11 678.717 548.097   1
   2   7  10 6079.05 763.219  -2
  -2   9  12 6079.05 763.219   1
   2   7  11-336.204 598.896  -2
  -2   9  13-336.204 598.896   1
   2   7  12 2534.64 703.577  -2
  -2   9  14 2534.64 703.577   1
   2   8 -19 914.974 599.226  -2
  -2  10 -17 914.974 599.226   1
   2   8 -18 939.100 572.812  -2
  -2  10 -16 939.100 572.812   1
   2   8 -17 2360.44 385.304  -2
  -2  10 -15 2360.44 385.304   1
   2   8 -16 1526.53 337.202  -2
  -2  10 -14 1526.53 337.202   1
   2   8 -15 4096.13 377.232  -2
  -2  10 -13 4096.13 377.232   1
   2   8 -14 3330.25 296.505  -2
  -2  10 -12 3330.25 296.505   1
   2   8 -13 2980.11 268.566  -2
  -2  10 -11 2980.11 268.566   1
   2   8 -12 1080.96 291.742  -2
  -2  10 -10 1080.96 291.742   1
   2   8 -11 2464.17 303.641  -2
  -2  10  -9 2464.17 303.641   1
   2   8 -10 580.776 256.328  -2
  -2  10  -8 580.776 256.328   1
   2   8  -9 2401.05 273.782  -2
  -2  10  -7 2401.05 273.782   1
   2   8  -8 1818.71 251.396  -2
  -2  10  -6 1818.71 251.396   1
   2   8  -7 5827.02 299.812  -2
  -2  10  -5 5827.02 299.812   1
   2   8  -6 1729.31 207.260  -2
  -2  10  -4 1729.31 207.260   1
   2   8  -5 2724.24 466.827  -2
  -2  10  -3 2724.24 466.827   1
   2   8  -4 2557.72 189.246  -2
  -2  10  -2 2557.72 189.246   1
   2   8  -3 5843.02 518.346  -2
  -2  10  -1 5843.02 518.346   1
   2   8  -2 839.493 170.826  -2
  -2  10   0 839.493 170.826   1
   2   8  -1 6755.40 526.081  -2
  -2  10   1 6755.40 526.081   1
   2   8   0 809.712 357.855  -2
  -2  10   2 809.712 357.855   1
   2   8   1 4742.40 476.738  -2
  -2  10   3 4742.40 476.738   1
   2   8   2 1877.19 307.469  -2
  -2  10   4 1877.19 307.469   1
   2   8   3 10358.3 476.261  -2
  -2  10   5 10358.3 476.261   1
   2   8   4 1302.05 311.476  -2
  -2  10   6 1302.05 311.476   1
   2   8   5 6022.61 433.222  -2
  -2  10   7 6022.61 433.222   1
   2   8   6 264.418 239.418  -2
  -2  10   8 264.418 239.418   1
   2   8   7 4850.43 445.725  -2
  -2  10   9 4850.43 445.725   1
   2   8   8 690.574 379.075  -2
  -2  10  10 690.574 379.075   1
   2   8   9 6835.64 802.870  -2
  -2  10  11 6835.64 802.870   1
   2   8  10 1030.33 604.111  -2
  -2  10  12 1030.33 604.111   1
   2   9 -18 1319.22 570.502  -2
  -2  11 -16 1319.22 570.502   1
   2   9 -17 1175.63 542.218  -2
  -2  11 -15 1175.63 542.218   1
   2   9 -16 1530.76 508.181  -2
  -2  11 -14 1530.76 508.181   1
   2   9 -15 1158.85 370.975  -2
  -2  11 -13 1158.85 370.975   1
   2   9 -14 4861.49 429.402  -2
  -2  11 -12 4861.49 429.402   1
   2   9 -13 1971.97 341.424  -2
  -2  11 -11 1971.97 341.424   1
   2   9 -12 1706.41 315.587  -2
  -2  11 -10 1706.41 315.587   1
   2   9 -11 482.847 251.828  -2
  -2  11  -9 482.847 251.828   1
   2   9 -10 1527.68 273.052  -2
  -2  11  -8 1527.68 273.052   1
   2   9  -9 684.072 232.288  -2
  -2  11  -7 684.072 232.288   1
   2   9  -8 2639.70 268.619  -2
  -2  11  -6 2639.70 268.619   1
   2   9  -7 2999.44 260.342  -2
  -2  11  -5 2999.44 260.342   1
   2   9  -6 5774.41 276.745  -2
  -2  11  -4 5774.41 276.745   1
   2   9  -5 949.659 166.904  -2
  -2  11  -3 949.659 166.904   1
   2   9  -4 4320.67 531.889  -2
  -2  11  -2 4320.67 531.889   1
   2   9  -3 722.752 383.817  -2
  -2  11  -1 722.752 383.817   1
   2   9  -2 1795.27 422.528  -2
  -2  11   0 1795.27 422.528   1
   2   9  -1 1288.13 393.794  -2
  -2  11   1 1288.13 393.794   1
   2   9   0 6939.37 573.338  -2
  -2  11   2 6939.37 573.338   1
   2   9   1 685.869 292.769  -2
  -2  11   3 685.869 292.769   1
   2   9   2 8020.46 462.428  -2
  -2  11   4 8020.46 462.428   1
   2   9   3 1402.67 328.962  -2
  -2  11   5 1402.67 328.962   1
   2   9   4 4959.31 429.439  -2
  -2  11   6 4959.31 429.439   1
   2   9   5 195.665 319.466  -2
  -2  11   7 195.665 319.466   1
   2   9   6 4169.80 437.845  -2
  -2  11   8 4169.80 437.845   1
   2   9   7 198.381 363.027  -2
  -2  11   9 198.381 363.027   1
   2   9   8 4161.01 477.241  -2
  -2  11  10 4161.01 477.241   1
   2   9   9 927.883 414.049  -2
  -2  11  11 927.883 414.049   1
   2  10 -17 1548.87 533.833  -2
  -2  12 -15 1548.87 533.833   1
   2  10 -16 1678.05 406.139  -2
  -2  12 -14 1678.05 406.139   1
   2  10 -15 2262.85 392.419  -2
  -2  12 -13 2262.85 392.419   1
   2  10 -14 2153.33 366.563  -2
  -2  12 -12 2153.33 366.563   1
   2  10 -13 3056.23 380.061  -2
  -2  12 -11 3056.23 380.061   1
   2  10 -12 1573.47 314.389  -2
  -2  12 -10 1573.47 314.389   1
   2  10 -11 1292.06 519.173  -2
  -2  12  -9 1292.06 519.173   1
   2  10 -10 816.002 497.743  -2
  -2  12  -8 816.002 497.743   1
   2  10  -9 948.981 488.182  -2
  -2  12  -7 948.981 488.182   1
   2  10  -8 832.721 473.258  -2
  -2  12  -6 832.721 473.258   1
   2  10  -7 4997.29 642.608  -2
  -2  12  -5 4997.29 642.608   1
   2  10  -6 1820.46 526.807  -2
  -2  12  -4 1820.46 526.807   1
   2  10  -5 2071.06 508.744  -2
  -2  12  -3 2071.06 508.744   1
   2  10  -4 818.066 413.576  -2
  -2  12  -2 818.066 413.576   1
   2  10  -3 1613.04 446.883  -2
  -2  12  -1 1613.04 446.883   1
   2  10  -2 1317.21 418.835  -2
  -2  12   0 1317.21 418.835   1
   2  10  -1 3365.69 500.556  -2
  -2  12   1 3365.69 500.556   1
   2  10   0 1527.00 447.679  -2
  -2  12   2 1527.00 447.679   1
   2  10   1 4556.61 415.175  -2
  -2  12   3 4556.61 415.175   1
   2  10   2 934.264 333.838  -2
  -2  12   4 934.264 333.838   1
   2  10   3 3962.17 424.010  -2
  -2  12   5 3962.17 424.010   1
   2  10   4 567.732 362.209  -2
  -2  12   6 567.732 362.209   1
   2  10   5 2279.26 423.896  -2
  -2  12   7 2279.26 423.896   1
   2  10   6 621.888 388.036  -2
  -2  12   8 621.888 388.036   1
   2  10   7 4168.18 493.161  -2
  -2  12   9 4168.18 493.161   1
   2  10   8 685.681 425.911  -2
  -2  12  10 685.681 425.911   1
   2  11 -16 1429.22 654.135  -2
  -2  13 -14 1429.22 654.135   1
   2  11 -15 418.876 607.730  -2
  -2  13 -13 418.876 607.730   1
   2  11 -14 1868.04 645.841  -2
  -2  13 -12 1868.04 645.841   1
   2  11 -13 1587.34 602.289  -2
  -2  13 -11 1587.34 602.289   1
   2  11 -12 1931.97 587.852  -2
  -2  13 -10 1931.97 587.852   1
   2  11 -11 747.803 516.100  -2
  -2  13  -9 747.803 516.100   1
   2  11 -10 983.047 540.375  -2
  -2  13  -8 983.047 540.375   1
   2  11  -9 307.975 494.818  -2
  -2  13  -7 307.975 494.818   1
   2  11  -8 493.494 503.707  -2
  -2  13  -6 493.494 503.707   1
   2  11  -7 1649.82 526.569  -2
  -2  13  -5 1649.82 526.569   1
   2  11  -6 2278.52 571.485  -2
  -2  13  -4 2278.52 571.485   1
   2  11  -5 692.946 487.599  -2
  -2  13  -3 692.946 487.599   1
   2  11  -4 4259.86 607.356  -2
  -2  13  -2 4259.86 607.356   1
   2  11  -3 1088.01 456.670  -2
  -2  13  -1 1088.01 456.670   1
   2  11  -2 1331.62 468.924  -2
  -2  13   0 1331.62 468.924   1
   2  11  -1 139.048 450.665  -2
  -2  13   1 139.048 450.665   1
   2  11   0 4454.21 601.491  -2
  -2  13   2 4454.21 601.491   1
   2  11   1 635.867 346.112  -2
  -2  13   3 635.867 346.112   1
   2  11   2 4907.32 458.672  -2
  -2  13   4 4907.32 458.672   1
   2  11   3 1580.70 398.058  -2
  -2  13   5 1580.70 398.058   1
   2  11   4 6864.31 547.878  -2
  -2  13   6 6864.31 547.878   1
   2  11   5 1269.84 424.681  -2
  -2  13   7 1269.84 424.681   1
   2  11   6 2699.56 467.878  -2
  -2  13   8 2699.56 467.878   1
   2  12 -15 1028.25 613.960  -2
  -2  14 -13 1028.25 613.960   1
   2  12 -14 1291.30 637.129  -2
  -2  14 -12 1291.30 637.129   1
   2  12 -13 2096.61 677.624  -2
  -2  14 -11 2096.61 677.624   1
   2  12 -12 1060.99 574.838  -2
  -2  14 -10 1060.99 574.838   1
   2  12 -11 1621.94 602.252  -2
  -2  14  -9 1621.94 602.252   1
   2  12 -10 1036.24 586.197  -2
  -2  14  -8 1036.24 586.197   1
   2  12  -9 2502.64 658.706  -2
  -2  14  -7 2502.64 658.706   1
   2  12  -8 237.484 538.433  -2
  -2  14  -6 237.484 538.433   1
   2  12  -7 2180.33 626.977  -2
  -2  14  -5 2180.33 626.977   1
   2  12  -6 1241.05 580.953  -2
  -2  14  -4 1241.05 580.953   1
   2  12  -5 1243.69 564.136  -2
  -2  14  -3 1243.69 564.136   1
   2  12  -4 731.615 517.955  -2
  -2  14  -2 731.615 517.955   1
   2  12  -3 2758.34 597.261  -2
  -2  14  -1 2758.34 597.261   1
   2  12  -2 735.915 536.469  -2
  -2  14   0 735.915 536.469   1
   2  12  -1 1707.81 550.652  -2
  -2  14   1 1707.81 550.652   1
   2  12   0 428.789 381.388  -2
  -2  14   2 428.789 381.388   1
   2  12   1 3129.31 464.878  -2
  -2  14   3 3129.31 464.878   1
   2  12   2 979.108 421.673  -2
  -2  14   4 979.108 421.673   1
   2  12   3 3664.77 485.663  -2
  -2  14   5 3664.77 485.663   1
   2  12   4 589.966 424.714  -2
  -2  14   6 589.966 424.714   1
   2  13 -12 853.657 632.279  -2
  -2  15 -10 853.657 632.279   1
   2  13 -11 915.609 619.112  -2
  -2  15  -9 915.609 619.112   1
   2  13 -10 1815.96 695.904  -2
  -2  15  -8 1815.96 695.904   1
   2  13  -9 633.109 610.410  -2
  -2  15  -7 633.109 610.410   1
   2  13  -8-288.904 599.445  -2
  -2  15  -6-288.904 599.445   1
   2  13  -7 1101.93 631.216  -2
  -2  15  -5 1101.93 631.216   1
   2  13  -6 1950.28 654.614  -2
  -2  15  -4 1950.28 654.614   1
   2  13  -5 473.111 601.897  -2
  -2  15  -3 473.111 601.897   1
   2  13  -4 1590.60 622.460  -2
  -2  15  -2 1590.60 622.460   1
   2  13  -3 605.587 590.846  -2
  -2  15  -1 605.587 590.846   1
   2  13  -2 2619.64 648.904  -2
  -2  15   0 2619.64 648.904   1
   2  13  -1 456.504 413.826  -2
  -2  15   1 456.504 413.826   1
   2  13   0 1993.09 454.231  -2
  -2  15   2 1993.09 454.231   1
   2  13   1 912.040 426.704  -2
  -2  15   3 912.040 426.704   1
   2  14  -8 376.376 639.050  -2
  -2  16  -6 376.376 639.050   1
   2  14  -7 1042.31 665.051  -2
  -2  16  -5 1042.31 665.051   1
   2  14  -6 953.928 657.459  -2
  -2  16  -4 953.928 657.459   1
   2  14  -5 1465.78 645.522  -2
  -2  16  -3 1465.78 645.522   1
   2  14  -4 840.208 617.213  -2
  -2  16  -2 840.208 617.213   1
  -1 -15   5 172.570 535.073   1
  -1 -15   6 676.026 544.041   1
  -1 -14  -1 1977.25 319.294   1
   1 -15  -1 882.234 370.685  -2
  -1 -14   0 882.234 370.685   1
   1 -15   0 1050.76 367.107  -2
  -1 -14   1 1050.76 367.107   1
   1 -15   1 2625.25 399.575  -2
  -1 -14   2 2625.25 399.575   1
   1 -15   2 1361.68 365.946  -2
  -1 -14   3 1361.68 365.946   1
   1 -15   3 3447.98 432.480  -2
  -1 -14   4 3447.98 432.480   1
   1 -15   4 1587.60 381.463  -2
  -1 -14   5 1587.60 381.463   1
   1 -15   5 1407.95 375.962  -2
  -1 -14   6 1407.95 375.962   1
   1 -15   6 1280.99 375.669  -2
  -1 -14   7 1280.99 375.669   1
   1 -15   7 2027.13 392.572  -2
  -1 -14   8 2027.13 392.572   1
   1 -15   8 1084.72 365.374  -2
  -1 -14   9 1084.72 365.374   1
   1 -15   9 1809.75 402.501  -2
  -1 -14  10 1809.75 402.501   1
   1 -15  10 1190.40 382.831  -2
  -1 -14  11 1190.40 382.831   1
  -1 -14  12 463.117 352.147   1
   1 -14  -5 2286.74 513.913  -2
  -1 -13  -4 2286.74 513.913   1
  -1 -13  -4 2228.86 523.674   1
   1 -14  -4 1971.59 383.736  -2
  -1 -13  -3 1971.59 383.736   1
   1 -14  -3 2110.86 373.356  -2
  -1 -13  -2 2110.86 373.356   1
   1 -14  -2 1895.24 373.627  -2
  -1 -13  -1 1895.24 373.627   1
   1 -14  -1 1469.61 345.403  -2
  -1 -13   0 1469.61 345.403   1
   1 -14   0 1588.49 432.468  -2
  -1 -13   1 1588.49 432.468   1
   1 -14   1 3366.89 496.383  -2
  -1 -13   2 3366.89 496.383   1
   1 -14   2 1472.10 438.869  -2
  -1 -13   3 1472.10 438.869   1
   1 -14   3 1465.98 404.387  -2
  -1 -13   4 1465.98 404.387   1
   1 -14   4 1149.36 420.407  -2
  -1 -13   5 1149.36 420.407   1
   1 -14   5 2467.16 460.459  -2
  -1 -13   6 2467.16 460.459   1
   1 -14   6 1346.73 423.351  -2
  -1 -13   7 1346.73 423.351   1
   1 -14   7 1125.46 432.896  -2
  -1 -13   8 1125.46 432.896   1
   1 -14   8 555.637 411.566  -2
  -1 -13   9 555.637 411.566   1
   1 -14   9 1613.67 361.762  -2
  -1 -13  10 1613.67 361.762   1
   1 -14  10 1718.01 370.407  -2
  -1 -13  11 1718.01 370.407   1
   1 -14  11 1488.54 368.105  -2
  -1 -13  12 1488.54 368.105   1
   1 -14  12 1764.35 380.398  -2
  -1 -13  13 1764.35 380.398   1
   1 -14  13 1638.57 392.437  -2
  -1 -13  14 1638.57 392.437   1
   1 -13  -7 2015.24 392.766  -2
  -1 -12  -6 2015.24 392.766   1
   1 -13  -6 1293.92 347.175  -2
  -1 -12  -5 1293.92 347.175   1
   1 -13  -5 3102.04 395.503  -2
  -1 -12  -4 3102.04 395.503   1
   1 -13  -4 1810.04 356.572  -2
  -1 -12  -3 1810.04 356.572   1
   1 -13  -3 5882.80 464.587  -2
  -1 -12  -2 5882.80 464.587   1
   1 -13  -2 1892.95 428.849  -2
  -1 -12  -1 1892.95 428.849   1
   1 -13  -1 4395.72 511.426  -2
  -1 -12   0 4395.72 511.426   1
   1 -13   0 2135.81 405.612  -2
  -1 -12   1 2135.81 405.612   1
   1 -13   1 2113.87 416.474  -2
  -1 -12   2 2113.87 416.474   1
   1 -13   2 3124.05 454.746  -2
  -1 -12   3 3124.05 454.746   1
   1 -13   3 6548.15 559.041  -2
  -1 -12   4 6548.15 559.041   1
   1 -13   4 2132.37 413.014  -2
  -1 -12   5 2132.37 413.014   1
   1 -13   5 4303.07 512.349  -2
  -1 -12   6 4303.07 512.349   1
   1 -13   6 983.386 373.225  -2
  -1 -12   7 983.386 373.225   1
   1 -13   7 1116.66 407.139  -2
  -1 -12   8 1116.66 407.139   1
   1 -13   8 2001.88 433.988  -2
  -1 -12   9 2001.88 433.988   1
   1 -13   9 1480.21 408.366  -2
  -1 -12  10 1480.21 408.366   1
   1 -13  10 1406.00 437.438  -2
  -1 -12  11 1406.00 437.438   1
   1 -13  11 3433.60 406.467  -2
  -1 -12  12 3433.60 406.467   1
   1 -13  12 2608.00 392.895  -2
  -1 -12  13 2608.00 392.895   1
   1 -13  13 1727.47 378.714  -2
  -1 -12  14 1727.47 378.714   1
   1 -13  14 860.496 341.460  -2
  -1 -12  15 860.496 341.460   1
  -1 -12  16 302.509 324.885   1
   1 -12  -9 1423.24 495.600  -2
  -1 -11  -8 1423.24 495.600   1
   1 -12  -8 1403.64 349.395  -2
  -1 -11  -7 1403.64 349.395   1
   1 -12  -7 1101.47 315.941  -2
  -1 -11  -6 1101.47 315.941   1
   1 -12  -6 2226.66 349.578  -2
  -1 -11  -5 2226.66 349.578   1
   1 -12  -5 2914.91 362.561  -2
  -1 -11  -4 2914.91 362.561   1
   1 -12  -4 2933.62 445.094  -2
  -1 -11  -3 2933.62 445.094   1
   1 -12  -3 4305.59 472.141  -2
  -1 -11  -2 4305.59 472.141   1
   1 -12  -2 2535.03 422.064  -2
  -1 -11  -1 2535.03 422.064   1
   1 -12  -1 2556.19 406.743  -2
  -1 -11   0 2556.19 406.743   1
   1 -12   0 758.845 336.934  -2
  -1 -11   1 758.845 336.934   1
   1 -12   1 1610.97 365.547  -2
  -1 -11   2 1610.97 365.547   1
   1 -12   2 1920.88 380.415  -2
  -1 -11   3 1920.88 380.415   1
   1 -12   3 4778.42 469.975  -2
  -1 -11   4 4778.42 469.975   1
   1 -12   4 3229.30 429.925  -2
  -1 -11   5 3229.30 429.925   1
   1 -12   5 3460.42 429.626  -2
  -1 -11   6 3460.42 429.626   1
   1 -12   6 1675.88 383.677  -2
  -1 -11   7 1675.88 383.677   1
   1 -12   7 832.184 338.709  -2
  -1 -11   8 832.184 338.709   1
   1 -12   8 1924.43 400.854  -2
  -1 -11   9 1924.43 400.854   1
   1 -12   9 3511.99 476.742  -2
  -1 -11  10 3511.99 476.742   1
   1 -12  10 2300.53 441.502  -2
  -1 -11  11 2300.53 441.502   1
   1 -12  11 2214.76 441.512  -2
  -1 -11  12 2214.76 441.512   1
   1 -12  12 2619.15 366.373  -2
  -1 -11  13 2619.15 366.373   1
   1 -12  13 2180.40 419.842  -2
  -1 -11  14 2180.40 419.842   1
   1 -12  14 2688.55 435.270  -2
  -1 -11  15 2688.55 435.270   1
   1 -12  15 1076.89 404.033  -2
  -1 -11  16 1076.89 404.033   1
   1 -12  16 814.569 604.956  -2
  -1 -11  17 814.569 604.956   1
  -1 -10 -10 2236.78 727.311   1
   1 -11 -10 1552.30 484.541  -2
  -1 -10  -9 1552.30 484.541   1
   1 -11  -9 4129.35 413.411  -2
  -1 -10  -8 4129.35 413.411   1
   1 -11  -8 2023.08 282.896  -2
  -1 -10  -7 2023.08 282.896   1
   1 -11  -7 2175.60 282.011  -2
  -1 -10  -6 2175.60 282.011   1
   1 -11  -6 1616.74 308.677  -2
  -1 -10  -5 1616.74 308.677   1
   1 -11  -5 4769.32 478.129  -2
  -1 -10  -4 4769.32 478.129   1
   1 -11  -4 3147.03 418.025  -2
  -1 -10  -3 3147.03 418.025   1
   1 -11  -3 9271.78 584.153  -2
  -1 -10  -2 9271.78 584.153   1
   1 -11  -2 4999.32 446.014  -2
  -1 -10  -1 4999.32 446.014   1
   1 -11  -1 4257.30 433.264  -2
  -1 -10   0 4257.30 433.264   1
   1 -11   0 882.388 309.773  -2
  -1 -10   1 882.388 309.773   1
   1 -11   1 4818.65 446.472  -2
  -1 -10   2 4818.65 446.472   1
   1 -11   2 4541.63 421.049  -2
  -1 -10   3 4541.63 421.049   1
   1 -11   3 4936.73 461.214  -2
  -1 -10   4 4936.73 461.214   1
   1 -11   4 3162.19 391.675  -2
  -1 -10   5 3162.19 391.675   1
   1 -11   5 5768.69 472.725  -2
  -1 -10   6 5768.69 472.725   1
   1 -11   6 6212.04 495.749  -2
  -1 -10   7 6212.04 495.749   1
   1 -11   7 5501.37 499.568  -2
  -1 -10   8 5501.37 499.568   1
   1 -11   8 1928.68 367.252  -2
  -1 -10   9 1928.68 367.252   1
   1 -11   9 2862.09 415.789  -2
  -1 -10  10 2862.09 415.789   1
   1 -11  10 4160.55 465.019  -2
  -1 -10  11 4160.55 465.019   1
   1 -11  11 3409.52 621.350  -2
  -1 -10  12 3409.52 621.350   1
   1 -11  12 3393.13 637.047  -2
  -1 -10  13 3393.13 637.047   1
   1 -11  13 3647.66 440.916  -2
  -1 -10  14 3647.66 440.916   1
   1 -11  14 2389.77 410.651  -2
  -1 -10  15 2389.77 410.651   1
   1 -11  15 3942.78 710.008  -2
  -1 -10  16 3942.78 710.008   1
   1 -11  16 1716.35 652.933  -2
  -1 -10  17 1716.35 652.933   1
   1 -11  17 1273.54 622.822  -2
  -1 -10  18 1273.54 622.822   1
   1 -10 -12 2345.80 425.531  -2
  -1  -9 -11 2345.80 425.531   1
   1 -10 -11 2720.80 406.656  -2
  -1  -9 -10 2720.80 406.656   1
   1 -10 -10 3072.32 395.537  -2
  -1  -9  -9 3072.32 395.537   1
   1 -10  -9 2438.78 298.420  -2
  -1  -9  -8 2438.78 298.420   1
   1 -10  -8 2219.70 272.350  -2
  -1  -9  -7 2219.70 272.350   1
   1 -10  -7 5128.89 376.409  -2
  -1  -9  -6 5128.89 376.409   1
   1 -10  -6 3993.71 337.539  -2
  -1  -9  -5 3993.71 337.539   1
   1 -10  -5 4064.57 312.165  -2
  -1  -9  -4 4064.57 312.165   1
   1 -10  -4 3668.33 287.614  -2
  -1  -9  -3 3668.33 287.614   1
   1 -10  -3 4105.34 278.491  -2
  -1  -9  -2 4105.34 278.491   1
   1 -10  -2 6444.08 297.772  -2
  -1  -9  -1 6444.08 297.772   1
   1 -10  -1 8679.42 302.307  -2
  -1  -9   0 8679.42 302.307   1
   1 -10   0 3403.56 176.184  -2
  -1  -9   1 3403.56 176.184   1
   1 -10   1 3130.93 348.372  -2
  -1  -9   2 3130.93 348.372   1
   1 -10   2 2241.63 330.609  -2
  -1  -9   3 2241.63 330.609   1
   1 -10   3 4117.11 395.787  -2
  -1  -9   4 4117.11 395.787   1
   1 -10   4 7234.86 480.828  -2
  -1  -9   5 7234.86 480.828   1
   1 -10   5 4426.88 418.146  -2
  -1  -9   6 4426.88 418.146   1
   1 -10   6 2760.81 381.276  -2
  -1  -9   7 2760.81 381.276   1
   1 -10   7 2746.97 392.034  -2
  -1  -9   8 2746.97 392.034   1
   1 -10   8 3063.70 392.204  -2
  -1  -9   9 3063.70 392.204   1
   1 -10   9 2147.09 365.184  -2
  -1  -9  10 2147.09 365.184   1
   1 -10  10 2648.22 553.014  -2
  -1  -9  11 2648.22 553.014   1
   1 -10  11 1742.54 340.877  -2
  -1  -9  12 1742.54 340.877   1
   1 -10  12 2787.07 379.795  -2
  -1  -9  13 2787.07 379.795   1
   1 -10  13 4621.49 347.904  -2
  -1  -9  14 4621.49 347.904   1
   1 -10  14 2781.03 382.904  -2
  -1  -9  15 2781.03 382.904   1
   1 -10  15 1248.35 548.831  -2
  -1  -9  16 1248.35 548.831   1
   1 -10  16 1630.21 620.278  -2
  -1  -9  17 1630.21 620.278   1
   1 -10  17 1018.88 566.208  -2
  -1  -9  18 1018.88 566.208   1
   1  -9 -13 2708.24 444.155  -2
  -1  -8 -12 2708.24 444.155   1
   1  -9 -12 2079.04 399.362  -2
  -1  -8 -11 2079.04 399.362   1
   1  -9 -11 3941.23 429.852  -2
  -1  -8 -10 3941.23 429.852   1
   1  -9 -10 3009.46 370.885  -2
  -1  -8  -9 3009.46 370.885   1
   1  -9  -9 7138.27 359.287  -2
  -1  -8  -8 7138.27 359.287   1
   1  -9  -8 1523.95 233.968  -2
  -1  -8  -7 1523.95 233.968   1
   1  -9  -7 5692.47 282.714  -2
  -1  -8  -6 5692.47 282.714   1
   1  -9  -6 3084.87 220.489  -2
  -1  -8  -5 3084.87 220.489   1
   1  -9  -5 4336.05 220.560  -2
  -1  -8  -4 4336.05 220.560   1
   1  -9  -4 9761.38 271.059  -2
  -1  -8  -3 9761.38 271.059   1
   1  -9  -3 14275.6 274.138  -2
  -1  -8  -2 14275.6 274.138   1
   1  -9  -2 2450.21 211.752  -2
  -1  -8  -1 2450.21 211.752   1
   1  -9  -1 10207.9 316.044  -2
  -1  -8   0 10207.9 316.044   1
   1  -9   0 2742.78 166.221  -2
  -1  -8   1 2742.78 166.221   1
   1  -9   1 2722.97 337.069  -2
  -1  -8   2 2722.97 337.069   1
   1  -9   2 3540.14 341.277  -2
  -1  -8   3 3540.14 341.277   1
   1  -9   3 6815.34 447.567  -2
  -1  -8   4 6815.34 447.567   1
   1  -9   4 4235.02 388.596  -2
  -1  -8   5 4235.02 388.596   1
   1  -9   5 11456.1 329.876  -2
  -1  -8   6 11456.1 329.876   1
   1  -9   6 6267.63 452.035  -2
  -1  -8   7 6267.63 452.035   1
   1  -9   7 4220.14 410.313  -2
  -1  -8   8 4220.14 410.313   1
   1  -9   8 3240.42 508.219  -2
  -1  -8   9 3240.42 508.219   1
   1  -9   9 3431.42 350.486  -2
  -1  -8  10 3431.42 350.486   1
   1  -9  10 3048.76 358.168  -2
  -1  -8  11 3048.76 358.168   1
   1  -9  11 6706.59 458.736  -2
  -1  -8  12 6706.59 458.736   1
   1  -9  12 2703.60 376.695  -2
  -1  -8  13 2703.60 376.695   1
   1  -9  13 3004.05 416.705  -2
  -1  -8  14 3004.05 416.705   1
   1  -9  14 2581.50 304.144  -2
  -1  -8  15 2581.50 304.144   1
   1  -9  15 3511.87 473.709  -2
  -1  -8  16 3511.87 473.709   1
   1  -9  16 1568.75 430.100  -2
  -1  -8  17 1568.75 430.100   1
   1  -9  17 1133.01 432.288  -2
  -1  -8  18 1133.01 432.288   1
   1  -9  18 2023.75 645.472  -2
  -1  -8  19 2023.75 645.472   1
   1  -8 -14 1289.55 412.048  -2
  -1  -7 -13 1289.55 412.048   1
   1  -8 -13 1783.01 325.427  -2
  -1  -7 -12 1783.01 325.427   1
   1  -8 -12 3786.43 353.711  -2
  -1  -7 -11 3786.43 353.711   1
   1  -8 -11 3459.21 325.088  -2
  -1  -7 -10 3459.21 325.088   1
   1  -8 -10 3944.64 256.158  -2
  -1  -7  -9 3944.64 256.158   1
   1  -8  -9 2983.27 227.109  -2
  -1  -7  -8 2983.27 227.109   1
   1  -8  -8 4090.60 273.583  -2
  -1  -7  -7 4090.60 273.583   1
   1  -8  -7 4291.77 257.624  -2
  -1  -7  -6 4291.77 257.624   1
   1  -8  -6 2896.35 211.328  -2
  -1  -7  -5 2896.35 211.328   1
   1  -8  -5 4564.95 223.523  -2
  -1  -7  -4 4564.95 223.523   1
   1  -8  -4 6046.22 224.558  -2
  -1  -7  -3 6046.22 224.558   1
   1  -8  -3 9624.54 239.950  -2
  -1  -7  -2 9624.54 239.950   1
   1  -8  -2 10554.9 214.355  -2
  -1  -7  -1 10554.9 214.355   1
   1  -8  -1 7591.88 262.784  -2
  -1  -7   0 7591.88 262.784   1
   1  -8   0 2444.38 152.020  -2
  -1  -7   1 2444.38 152.020   1
   1  -8   1 1037.19 228.908  -2
  -1  -7   2 1037.19 228.908   1
   1  -8   2 1525.98 101.804  -2
  -1  -7   3 1525.98 101.804   1
   1  -8   3 12121.4 274.164  -2
  -1  -7   4 12121.4 274.164   1
   1  -8   4 5172.88 218.711  -2
  -1  -7   5 5172.88 218.711   1
   1  -8   5 5593.07 257.106  -2
  -1  -7   6 5593.07 257.106   1
   1  -8   6 4685.36 376.597  -2
  -1  -7   7 4685.36 376.597   1
   1  -8   7 3589.80 486.099  -2
  -1  -7   8 3589.80 486.099   1
   1  -8   8 2732.71 308.259  -2
  -1  -7   9 2732.71 308.259   1
   1  -8   9 4088.23 369.814  -2
  -1  -7  10 4088.23 369.814   1
   1  -8  10 1630.35 307.017  -2
  -1  -7  11 1630.35 307.017   1
   1  -8  11 4560.16 417.103  -2
  -1  -7  12 4560.16 417.103   1
   1  -8  12 3821.83 412.902  -2
  -1  -7  13 3821.83 412.902   1
   1  -8  13 6112.31 507.866  -2
  -1  -7  14 6112.31 507.866   1
   1  -8  14 3005.08 304.567  -2
  -1  -7  15 3005.08 304.567   1
   1  -8  15 4652.84 510.260  -2
  -1  -7  16 4652.84 510.260   1
   1  -8  16 1428.11 431.238  -2
  -1  -7  17 1428.11 431.238   1
   1  -8  17 1570.60 451.435  -2
  -1  -7  18 1570.60 451.435   1
   1  -8  18 1113.22 456.407  -2
  -1  -7  19 1113.22 456.407   1
   1  -7 -15 1704.06 355.940  -2
  -1  -6 -14 1704.06 355.940   1
   1  -7 -14 1843.05 329.849  -2
  -1  -6 -13 1843.05 329.849   1
   1  -7 -13 3454.80 360.013  -2
  -1  -6 -12 3454.80 360.013   1
   1  -7 -12 3285.32 324.004  -2
  -1  -6 -11 3285.32 324.004   1
   1  -7 -11 5385.43 347.455  -2
  -1  -6 -10 5385.43 347.455   1
   1  -7 -10 6247.82 348.058  -2
  -1  -6  -9 6247.82 348.058   1
   1  -7  -9 9147.20 372.384  -2
  -1  -6  -8 9147.20 372.384   1
   1  -7  -8 6542.84 307.839  -2
  -1  -6  -7 6542.84 307.839   1
   1  -7  -7 5800.32 280.027  -2
  -1  -6  -6 5800.32 280.027   1
   1  -7  -6 3899.86 228.164  -2
  -1  -6  -5 3899.86 228.164   1
   1  -7  -5 10034.1 291.445  -2
  -1  -6  -4 10034.1 291.445   1
   1  -7  -4 3223.80 174.273  -2
  -1  -6  -3 3223.80 174.273   1
   1  -7  -3 11704.4 258.575  -2
  -1  -6  -2 11704.4 258.575   1
   1  -7  -2 14545.8 257.773  -2
  -1  -6  -1 14545.8 257.773   1
   1  -7  -1 10086.4 146.874  -2
  -1  -6   0 10086.4 146.874   1
   1  -7   0 7788.15 225.213  -2
  -1  -6   1 7788.15 225.213   1
   1  -7   1 11902.1 152.674  -2
  -1  -6   2 11902.1 152.674   1
   1  -7   2 1010.24 109.838  -2
  -1  -6   3 1010.24 109.838   1
   1  -7   3 4309.21 188.200  -2
  -1  -6   4 4309.21 188.200   1
   1  -7   4 8662.15 275.634  -2
  -1  -6   5 8662.15 275.634   1
   1  -7   5 16736.4 769.893  -2
  -1  -6   6 16736.4 769.893   1
   1  -7   6 11685.0 446.941  -2
  -1  -6   7 11685.0 446.941   1
   1  -7   7 12521.5 468.460  -2
  -1  -6   8 12521.5 468.460   1
   1  -7   8 2116.20 290.917  -2
  -1  -6   9 2116.20 290.917   1
   1  -7   9 3506.18 349.566  -2
  -1  -6  10 3506.18 349.566   1
   1  -7  10 4782.69 406.146  -2
  -1  -6  11 4782.69 406.146   1
   1  -7  11 3871.16 389.790  -2
  -1  -6  12 3871.16 389.790   1
   1  -7  12 3686.94 415.449  -2
  -1  -6  13 3686.94 415.449   1
   1  -7  13 4870.34 471.381  -2
  -1  -6  14 4870.34 471.381   1
   1  -7  14 2855.92 426.365  -2
  -1  -6  15 2855.92 426.365   1
   1  -7  15 3142.36 472.089  -2
  -1  -6  16 3142.36 472.089   1
   1  -7  16 963.149 404.695  -2
  -1  -6  17 963.149 404.695   1
   1  -7  17 1500.47 443.343  -2
  -1  -6  18 1500.47 443.343   1
   1  -7  18 274.536 289.699  -2
  -1  -6  19 274.536 289.699   1
  -1  -6  20 731.966 632.563   1
   1  -6 -16 2457.10 450.361  -2
  -1  -5 -15 2457.10 450.361   1
   1  -6 -15 1187.21 323.154  -2
  -1  -5 -14 1187.21 323.154   1
   1  -6 -14 1527.22 320.628  -2
  -1  -5 -13 1527.22 320.628   1
   1  -6 -13 1957.26 298.726  -2
  -1  -5 -12 1957.26 298.726   1
   1  -6 -12 3397.28 325.735  -2
  -1  -5 -11 3397.28 325.735   1
   1  -6 -11 4747.83 332.042  -2
  -1  -5 -10 4747.83 332.042   1
   1  -6 -10 4622.44 240.150  -2
  -1  -5  -9 4622.44 240.150   1
   1  -6  -9 4153.99 287.149  -2
  -1  -5  -8 4153.99 287.149   1
   1  -6  -8 6163.77 296.359  -2
  -1  -5  -7 6163.77 296.359   1
   1  -6  -7 8544.46 316.813  -2
  -1  -5  -6 8544.46 316.813   1
   1  -6  -6 4945.22 236.113  -2
  -1  -5  -5 4945.22 236.113   1
   1  -6  -5 5632.91 223.814  -2
  -1  -5  -4 5632.91 223.814   1
   1  -6  -4 1286.78 135.805  -2
  -1  -5  -3 1286.78 135.805   1
   1  -6  -3 4827.93 177.597  -2
  -1  -5  -2 4827.93 177.597   1
   1  -6  -2 13076.5 237.200  -2
  -1  -5  -1 13076.5 237.200   1
   1  -6  -1 12726.7 205.056  -2
  -1  -5   0 12726.7 205.056   1
   1  -6   0 8427.72 182.235  -2
  -1  -5   1 8427.72 182.235   1
   1  -6   1 5302.41 160.702  -2
  -1  -5   2 5302.41 160.702   1
   1  -6   2 1069.51 112.732  -2
  -1  -5   3 1069.51 112.732   1
   1  -6   3 4372.07 190.451  -2
  -1  -5   4 4372.07 190.451   1
   1  -6   4 10365.7 334.897  -2
  -1  -5   5 10365.7 334.897   1
   1  -6   5 8676.10 366.585  -2
  -1  -5   6 8676.10 366.585   1
   1  -6   6 12411.4 426.396  -2
  -1  -5   7 12411.4 426.396   1
   1  -6   7 21069.3 602.156  -2
  -1  -5   8 21069.3 602.156   1
   1  -6   8 3609.71 326.007  -2
  -1  -5   9 3609.71 326.007   1
   1  -6   9 1466.29 283.374  -2
  -1  -5  10 1466.29 283.374   1
   1  -6  10 2800.71 345.010  -2
  -1  -5  11 2800.71 345.010   1
   1  -6  11 5317.00 455.618  -2
  -1  -5  12 5317.00 455.618   1
   1  -6  12 10713.3 597.265  -2
  -1  -5  13 10713.3 597.265   1
   1  -6  13 6313.00 325.425  -2
  -1  -5  14 6313.00 325.425   1
   1  -6  14 4125.63 462.869  -2
  -1  -5  15 4125.63 462.869   1
   1  -6  15 2838.38 453.507  -2
  -1  -5  16 2838.38 453.507   1
   1  -6  16 3025.20 470.468  -2
  -1  -5  17 3025.20 470.468   1
   1  -6  17 1767.48 448.560  -2
  -1  -5  18 1767.48 448.560   1
   1  -6  18 847.546 395.644  -2
  -1  -5  19 847.546 395.644   1
   1  -6  19 634.549 434.540  -2
  -1  -5  20 634.549 434.540   1
   1  -5 -17 2719.36 514.071  -2
  -1  -4 -16 2719.36 514.071   1
   1  -5 -16 3026.31 454.673  -2
  -1  -4 -15 3026.31 454.673   1
   1  -5 -15 1828.85 395.744  -2
  -1  -4 -14 1828.85 395.744   1
   1  -5 -14 878.776 282.243  -2
  -1  -4 -13 878.776 282.243   1
   1  -5 -13 2537.98 308.378  -2
  -1  -4 -12 2537.98 308.378   1
   1  -5 -12 1634.21 268.491  -2
  -1  -4 -11 1634.21 268.491   1
   1  -5 -11 6937.61 365.469  -2
  -1  -4 -10 6937.61 365.469   1
   1  -5 -10 6258.80 335.902  -2
  -1  -4  -9 6258.80 335.902   1
   1  -5  -9 10833.1 382.173  -2
  -1  -4  -8 10833.1 382.173   1
   1  -5  -8 4418.72 276.325  -2
  -1  -4  -7 4418.72 276.325   1
   1  -5  -7 13596.3 369.050  -2
  -1  -4  -6 13596.3 369.050   1
   1  -5  -6 2340.22 180.018  -2
  -1  -4  -5 2340.22 180.018   1
   1  -5  -5 5714.64 220.039  -2
  -1  -4  -4 5714.64 220.039   1
   1  -5  -4 8967.74 239.477  -2
  -1  -4  -3 8967.74 239.477   1
   1  -5  -3 15997.7 319.063  -2
  -1  -4  -2 15997.7 319.063   1
   1  -5  -2 2356.98 223.197  -2
  -1  -4  -1 2356.98 223.197   1
   1  -5  -1 51178.4 716.517  -2
  -1  -4   0 51178.4 716.517   1
   1  -5   0 25435.1 300.050  -2
  -1  -4   1 25435.1 300.050   1
   1  -5   1 7457.39 185.110  -2
  -1  -4   2 7457.39 185.110   1
   1  -5   2 471.837 63.3944  -2
  -1  -4   3 471.837 63.3944   1
   1  -5   3 3969.96 135.135  -2
  -1  -4   4 3969.96 135.135   1
   1  -5   4 10173.6 209.176  -2
  -1  -4   5 10173.6 209.176   1
   1  -5   5 21230.1 365.208  -2
  -1  -4   6 21230.1 365.208   1
   1  -5   6 9049.34 282.644  -2
  -1  -4   7 9049.34 282.644   1
   1  -5   7 8295.99 390.294  -2
  -1  -4   8 8295.99 390.294   1
   1  -5   8 5678.48 374.807  -2
  -1  -4   9 5678.48 374.807   1
   1  -5   9 3538.97 339.842  -2
  -1  -4  10 3538.97 339.842   1
   1  -5  10 3726.51 387.541  -2
  -1  -4  11 3726.51 387.541   1
   1  -5  11 2471.42 344.566  -2
  -1  -4  12 2471.42 344.566   1
   1  -5  12 3208.19 394.327  -2
  -1  -4  13 3208.19 394.327   1
   1  -5  13 6241.65 288.063  -2
  -1  -4  14 6241.65 288.063   1
   1  -5  14 7936.20 564.536  -2
  -1  -4  15 7936.20 564.536   1
   1  -5  15 2525.27 430.075  -2
  -1  -4  16 2525.27 430.075   1
   1  -5  16 1042.82 393.453  -2
  -1  -4  17 1042.82 393.453   1
   1  -5  17 1542.86 433.633  -2
  -1  -4  18 1542.86 433.633   1
   1  -5  18 1175.33 441.245  -2
  -1  -4  19 1175.33 441.245   1
   1  -5  19 468.074 462.200  -2
  -1  -4  20 468.074 462.200   1
   1  -4 -17 2548.64 492.592  -2
  -1  -3 -16 2548.64 492.592   1
   1  -4 -16 2925.19 445.062  -2
  -1  -3 -15 2925.19 445.062   1
   1  -4 -15 2603.53 403.620  -2
  -1  -3 -14 2603.53 403.620   1
   1  -4 -14 1325.88 336.729  -2
  -1  -3 -13 1325.88 336.729   1
   1  -4 -13 1890.11 284.830  -2
  -1  -3 -12 1890.11 284.830   1
   1  -4 -12 5035.10 346.858  -2
  -1  -3 -11 5035.10 346.858   1
   1  -4 -11 4222.58 202.938  -2
  -1  -3 -10 4222.58 202.938   1
   1  -4 -10 5651.48 320.359  -2
  -1  -3  -9 5651.48 320.359   1
   1  -4  -9 6734.43 331.024  -2
  -1  -3  -8 6734.43 331.024   1
   1  -4  -8 3726.36 242.133  -2
  -1  -3  -7 3726.36 242.133   1
   1  -4  -7 6181.91 264.838  -2
  -1  -3  -6 6181.91 264.838   1
   1  -4  -6 3377.39 198.015  -2
  -1  -3  -5 3377.39 198.015   1
   1  -4  -5 5460.58 211.520  -2
  -1  -3  -4 5460.58 211.520   1
   1  -4  -4 7308.61 238.010  -2
  -1  -3  -3 7308.61 238.010   1
   1  -4  -3 31390.9 574.438  -2
  -1  -3  -2 31390.9 574.438   1
   1  -4  -2 2866.00 205.617  -2
  -1  -3  -1 2866.00 205.617   1
   1  -4  -1 4432.36 224.978  -2
  -1  -3   0 4432.36 224.978   1
   1  -4   0 8149.21 159.913  -2
  -1  -3   1 8149.21 159.913   1
   1  -4   1 16503.0 169.238  -2
  -1  -3   2 16503.0 169.238   1
   1  -4   2 5265.34 126.822  -2
  -1  -3   3 5265.34 126.822   1
   1  -4   3 12705.8 209.478  -2
  -1  -3   4 12705.8 209.478   1
   1  -4   4 2067.45 126.470  -2
  -1  -3   5 2067.45 126.470   1
   1  -4   5 10457.7 283.792  -2
  -1  -3   6 10457.7 283.792   1
   1  -4   6 35222.2 699.314  -2
  -1  -3   7 35222.2 699.314   1
   1  -4   7 18647.1 562.940  -2
  -1  -3   8 18647.1 562.940   1
   1  -4   8 11464.6 475.478  -2
  -1  -3   9 11464.6 475.478   1
   1  -4   9 2273.64 300.429  -2
  -1  -3  10 2273.64 300.429   1
   1  -4  10 4191.00 361.907  -2
  -1  -3  11 4191.00 361.907   1
   1  -4  11 5130.71 427.387  -2
  -1  -3  12 5130.71 427.387   1
   1  -4  12 8988.97 694.107  -2
  -1  -3  13 8988.97 694.107   1
   1  -4  13 4771.94 586.401  -2
  -1  -3  14 4771.94 586.401   1
   1  -4  14 9916.51 777.096  -2
  -1  -3  15 9916.51 777.096   1
   1  -4  15 3616.74 583.886  -2
  -1  -3  16 3616.74 583.886   1
   1  -4  16 4052.01 626.564  -2
  -1  -3  17 4052.01 626.564   1
   1  -4  17 1425.49 400.464  -2
  -1  -3  18 1425.49 400.464   1
   1  -4  18 1604.21 436.395  -2
  -1  -3  19 1604.21 436.395   1
   1  -4  19 971.792 783.780  -2
  -1  -3  20 971.792 783.780   1
   1  -3 -18 1571.09 476.804  -2
  -1  -2 -17 1571.09 476.804   1
   1  -3 -17 2559.98 505.684  -2
  -1  -2 -16 2559.98 505.684   1
   1  -3 -16 3156.90 479.408  -2
  -1  -2 -15 3156.90 479.408   1
   1  -3 -15 2772.07 400.094  -2
  -1  -2 -14 2772.07 400.094   1
   1  -3 -14 2418.22 365.068  -2
  -1  -2 -13 2418.22 365.068   1
   1  -3 -13 1384.15 307.918  -2
  -1  -2 -12 1384.15 307.918   1
   1  -3 -12 1477.65 255.517  -2
  -1  -2 -11 1477.65 255.517   1
   1  -3 -11 9396.14 221.944  -2
  -1  -2 -10 9396.14 221.944   1
   1  -3 -10 9494.78 386.788  -2
  -1  -2  -9 9494.78 386.788   1
   1  -3  -9 10665.5 367.656  -2
  -1  -2  -8 10665.5 367.656   1
   1  -3  -8 4494.48 248.044  -2
  -1  -2  -7 4494.48 248.044   1
   1  -3  -7 8551.28 294.381  -2
  -1  -2  -6 8551.28 294.381   1
   1  -3  -6 13596.2 378.488  -2
  -1  -2  -5 13596.2 378.488   1
   1  -3  -5 37231.5 539.388  -2
  -1  -2  -4 37231.5 539.388   1
   1  -3  -4 3131.56 233.862  -2
  -1  -2  -3 3131.56 233.862   1
   1  -3  -3 6624.77 215.134  -2
  -1  -2  -2 6624.77 215.134   1
   1  -3  -2 19367.3 301.754  -2
  -1  -2  -1 19367.3 301.754   1
   1  -3  -1 48142.4 421.444  -2
  -1  -2   0 48142.4 421.444   1
   1  -3   0 56869.1 392.483  -2
  -1  -2   1 56869.1 392.483   1
  -1  -2   1 31071.5 488.727   1
   1  -3   1 71089.9 347.656  -2
  -1  -2   2 71089.9 347.656   1
   1  -3   2 2302.93 95.6427  -2
  -1  -2   3 2302.93 95.6427   1
   1  -3   3 6178.69 144.745  -2
  -1  -2   4 6178.69 144.745   1
   1  -3   4 13290.6 245.935  -2
  -1  -2   5 13290.6 245.935   1
   1  -3   5 9283.56 272.196  -2
  -1  -2   6 9283.56 272.196   1
   1  -3   6 14877.8 456.996  -2
  -1  -2   7 14877.8 456.996   1
   1  -3   7 26522.3 618.874  -2
  -1  -2   8 26522.3 618.874   1
   1  -3   8 8698.22 556.063  -2
  -1  -2   9 8698.22 556.063   1
   1  -3   9 4582.20 433.933  -2
  -1  -2  10 4582.20 433.933   1
   1  -3  10 3549.24 434.872  -2
  -1  -2  11 3549.24 434.872   1
   1  -3  11 1917.87 377.504  -2
  -1  -2  12 1917.87 377.504   1
   1  -3  12 3103.17 154.774  -2
  -1  -2  13 3103.17 154.774   1
   1  -3  13 5819.94 573.907  -2
  -1  -2  14 5819.94 573.907   1
   1  -3  14 5131.38 603.262  -2
  -1  -2  15 5131.38 603.262   1
   1  -3  15 3729.50 555.107  -2
  -1  -2  16 3729.50 555.107   1
   1  -3  16 2979.40 546.203  -2
  -1  -2  17 2979.40 546.203   1
   1  -3  17 1859.05 521.434  -2
  -1  -2  18 1859.05 521.434   1
  -1  -1 -18 1022.29 388.206   1
   1  -2 -18 1975.89 494.280  -2
  -1  -1 -17 1975.89 494.280   1
   1  -2 -17 3957.55 539.928  -2
  -1  -1 -16 3957.55 539.928   1
   1  -2 -16 4793.62 542.258  -2
  -1  -1 -15 4793.62 542.258   1
   1  -2 -15 2029.30 418.735  -2
  -1  -1 -14 2029.30 418.735   1
   1  -2 -14 2216.70 399.908  -2
  -1  -1 -13 2216.70 399.908   1
   1  -2 -13 2999.98 357.681  -2
  -1  -1 -12 2999.98 357.681   1
   1  -2 -12 1844.89 316.130  -2
  -1  -1 -11 1844.89 316.130   1
   1  -2 -11 2348.66 316.620  -2
  -1  -1 -10 2348.66 316.620   1
   1  -2 -10 9143.82 180.761  -2
  -1  -1  -9 9143.82 180.761   1
   1  -2  -9 11144.6 222.644  -2
  -1  -1  -8 11144.6 222.644   1
   1  -2  -8 6800.85 282.844  -2
  -1  -1  -7 6800.85 282.844   1
   1  -2  -7 3863.82 259.734  -2
  -1  -1  -6 3863.82 259.734   1
   1  -2  -6 1827.82 191.860  -2
  -1  -1  -5 1827.82 191.860   1
   1  -2  -5 6396.94 243.451  -2
  -1  -1  -4 6396.94 243.451   1
   1  -2  -4 8220.55 240.356  -2
  -1  -1  -3 8220.55 240.356   1
   1  -2  -3 13801.1 259.462  -2
  -1  -1  -2 13801.1 259.462   1
   1  -2  -2 12102.0 210.824  -2
  -1  -1  -1 12102.0 210.824   1
   1  -2  -1 1637.13 88.6959  -2
  -1  -1   0 1637.13 88.6959   1
   1  -2   0 18634.1 194.416  -2
  -1  -1   1 18634.1 194.416   1
   1  -2   1 21859.9 188.269  -2
  -1  -1   2 21859.9 188.269   1
  -1  -1   2 10538.7 290.457   1
   1  -2   2 5219.41 127.349  -2
  -1  -1   3 5219.41 127.349   1
  -1  -1   3 3552.29 216.474   1
   1  -2   3 3938.90 122.180  -2
  -1  -1   4 3938.90 122.180   1
   1  -2   4 4346.11 142.538  -2
  -1  -1   5 4346.11 142.538   1
   1  -2   5 11747.4 459.392  -2
  -1  -1   6 11747.4 459.392   1
   1  -2   6 27721.1 698.185  -2
  -1  -1   7 27721.1 698.185   1
   1  -2   7 14589.3 573.902  -2
  -1  -1   8 14589.3 573.902   1
   1  -2   8 18535.6 675.267  -2
  -1  -1   9 18535.6 675.267   1
   1  -2   9 2968.64 144.580  -2
  -1  -1  10 2968.64 144.580   1
   1  -2  10 4247.40 413.324  -2
  -1  -1  11 4247.40 413.324   1
   1  -2  11 2650.17 388.622  -2
  -1  -1  12 2650.17 388.622   1
   1  -2  12 6684.06 546.423  -2
  -1  -1  13 6684.06 546.423   1
   1  -2  13 3851.79 480.298  -2
  -1  -1  14 3851.79 480.298   1
   1  -2  14 9175.48 690.472  -2
  -1  -1  15 9175.48 690.472   1
   1  -2  15 4267.77 533.303  -2
  -1  -1  16 4267.77 533.303   1
   1  -2  16 4389.64 592.819  -2
  -1  -1  17 4389.64 592.819   1
   1  -1 -19 1205.31 489.892  -2
  -1   0 -18 1205.31 489.892   1
   1  -1 -18 1824.53 486.565  -2
  -1   0 -17 1824.53 486.565   1
   1  -1 -17 2999.00 501.830  -2
  -1   0 -16 2999.00 501.830   1
   1  -1 -16 4152.70 507.296  -2
  -1   0 -15 4152.70 507.296   1
   1  -1 -15 7283.40 576.623  -2
  -1   0 -14 7283.40 576.623   1
   1  -1 -14 2751.80 401.205  -2
  -1   0 -13 2751.80 401.205   1
   1  -1 -13 1846.10 359.103  -2
  -1   0 -12 1846.10 359.103   1
   1  -1 -12 1974.95 335.253  -2
  -1   0 -11 1974.95 335.253   1
   1  -1 -11 7558.91 441.517  -2
  -1   0 -10 7558.91 441.517   1
   1  -1 -10 4887.25 346.581  -2
  -1   0  -9 4887.25 346.581   1
   1  -1  -9 20178.5 546.670  -2
  -1   0  -8 20178.5 546.670   1
   1  -1  -8 9194.65 206.694  -2
  -1   0  -7 9194.65 206.694   1
   1  -1  -7 19406.3 300.233  -2
  -1   0  -6 19406.3 300.233   1
   1  -1  -6 10019.5 200.879  -2
  -1   0  -5 10019.5 200.879   1
   1  -1  -5 7076.88 312.853  -2
  -1   0  -4 7076.88 312.853   1
   1  -1  -4 10596.5 304.998  -2
  -1   0  -3 10596.5 304.998   1
   1  -1  -3 45302.2 469.604  -2
  -1   0  -2 45302.2 469.604   1
   1  -1  -2 10322.4 205.869  -2
  -1   0  -1 10322.4 205.869   1
  -1   0  -1 5380.76 185.057   1
  -1   0   2 3382.95 110.461   1
   1  -1   2 48279.7 259.792  -2
  -1   0   3 48279.7 259.792   1
  -1   0   3 26205.9 414.084   1
   1  -1   3 21106.4 228.349  -2
  -1   0   4 21106.4 228.349   1
  -1   0   4 10516.6 332.687   1
   1  -1   4 5621.12 167.826  -2
  -1   0   5 5621.12 167.826   1
   1  -1   5 557.616 80.7589  -2
  -1   0   6 557.616 80.7589   1
   1  -1   6 11873.3 194.302  -2
  -1   0   7 11873.3 194.302   1
   1  -1   7 13773.8 212.359  -2
  -1   0   8 13773.8 212.359   1
   1  -1   8 35933.7 360.605  -2
  -1   0   9 35933.7 360.605   1
   1  -1   9 8464.77 484.255  -2
  -1   0  10 8464.77 484.255   1
   1  -1  10 2393.05 325.946  -2
  -1   0  11 2393.05 325.946   1
   1  -1  11 821.689 279.632  -2
  -1   0  12 821.689 279.632   1
   1  -1  12 3240.20 416.782  -2
  -1   0  13 3240.20 416.782   1
   1  -1  13 5444.17 523.347  -2
  -1   0  14 5444.17 523.347   1
   1  -1  14 6856.52 589.602  -2
  -1   0  15 6856.52 589.602   1
   1  -1  15 3919.70 521.156  -2
  -1   0  16 3919.70 521.156   1
   1  -1  16 1459.80 440.558  -2
  -1   0  17 1459.80 440.558   1
   1   0 -19 1130.62 469.291  -2
  -1   1 -18 1130.62 469.291   1
   1   0 -18 1687.09 485.857  -2
  -1   1 -17 1687.09 485.857   1
   1   0 -17 1700.60 436.524  -2
  -1   1 -16 1700.60 436.524   1
   1   0 -16 3414.89 478.132  -2
  -1   1 -15 3414.89 478.132   1
   1   0 -15 6037.82 536.185  -2
  -1   1 -14 6037.82 536.185   1
   1   0 -14 4811.78 463.594  -2
  -1   1 -13 4811.78 463.594   1
   1   0 -13 2176.19 375.015  -2
  -1   1 -12 2176.19 375.015   1
   1   0 -12 585.761 279.691  -2
  -1   1 -11 585.761 279.691   1
   1   0 -11 2297.64 319.198  -2
  -1   1 -10 2297.64 319.198   1
   1   0 -10 6762.18 409.690  -2
  -1   1  -9 6762.18 409.690   1
   1   0  -9 28824.9 730.362  -2
  -1   1  -8 28824.9 730.362   1
   1   0  -8 13571.8 273.186  -2
  -1   1  -7 13571.8 273.186   1
  -1   1  -7 8495.74 190.831   1
   1   0  -7 10535.2 135.696  -2
  -1   1  -6 10535.2 135.696   1
   1   0  -6 779.063 63.7156  -2
  -1   1  -5 779.063 63.7156   1
   1   0  -5 5286.10 108.022  -2
  -1   1  -4 5286.10 108.022   1
   1   0  -4 21178.7 186.624  -2
  -1   1  -3 21178.7 186.624   1
   1   0  -3 48502.4 318.086  -2
  -1   1  -2 48502.4 318.086   1
  -1   1  -2 22543.7 334.062   1
   1   0  -2 8409.03 217.782  -2
  -1   1  -1 8409.03 217.782   1
   1   0   1 10842.6 124.958  -2
  -1   1   2 10842.6 124.958   1
  -1   1   2 4789.42 230.874   1
   1   0   2 45498.0 244.918  -2
  -1   1   3 45498.0 244.918   1
  -1   1   3 22496.9 333.478   1
   1   0   3 10768.3 93.1762  -2
  -1   1   4 10768.3 93.1762   1
   1   0   4 6778.28 96.1541  -2
  -1   1   5 6778.28 96.1541   1
   1   0   5 9846.53 127.413  -2
  -1   1   6 9846.53 127.413   1
   1   0   6 18976.0 177.469  -2
  -1   1   7 18976.0 177.469   1
   1   0   7 9998.31 198.582  -2
  -1   1   8 9998.31 198.582   1
   1   0   8 23580.4 675.053  -2
  -1   1   9 23580.4 675.053   1
   1   0   9 6191.82 409.024  -2
  -1   1  10 6191.82 409.024   1
   1   0  10 8425.64 501.650  -2
  -1   1  11 8425.64 501.650   1
   1   0  11 2332.58 345.090  -2
  -1   1  12 2332.58 345.090   1
   1   0  12 1797.43 349.828  -2
  -1   1  13 1797.43 349.828   1
   1   0  13 3095.96 428.231  -2
  -1   1  14 3095.96 428.231   1
   1   0  14 7296.73 599.424  -2
  -1   1  15 7296.73 599.424   1
   1   0  15 4491.81 526.824  -2
  -1   1  16 4491.81 526.824   1
  -1   2 -19 700.529 359.077   1
   1   1 -19 1648.50 485.009  -2
  -1   2 -18 1648.50 485.009   1
   1   1 -18 1148.46 428.966  -2
  -1   2 -17 1148.46 428.966   1
   1   1 -17 3357.40 494.452  -2
  -1   2 -16 3357.40 494.452   1
   1   1 -16 3545.91 483.998  -2
  -1   2 -15 3545.91 483.998   1
   1   1 -15 7752.39 565.050  -2
  -1   2 -14 7752.39 565.050   1
   1   1 -14 2863.30 411.661  -2
  -1   2 -13 2863.30 411.661   1
   1   1 -13 6118.97 478.196  -2
  -1   2 -12 6118.97 478.196   1
   1   1 -12 2381.46 344.048  -2
  -1   2 -11 2381.46 344.048   1
   1   1 -11 3755.67 355.204  -2
  -1   2 -10 3755.67 355.204   1
  -1   2 -10 2394.23 106.805   1
   1   1 -10 2942.63 99.0838  -2
  -1   2  -9 2942.63 99.0838   1
   1   1  -9 17267.5 225.219  -2
  -1   2  -8 17267.5 225.219   1
   1   1  -8 14743.2 190.698  -2
  -1   2  -7 14743.2 190.698   1
   1   1  -7 25556.4 244.726  -2
  -1   2  -6 25556.4 244.726   1
   1   1  -6 10959.9 169.925  -2
  -1   2  -5 10959.9 169.925   1
   1   1  -5 4917.44 141.774  -2
  -1   2  -4 4917.44 141.774   1
   1   1  -4 3745.71 152.959  -2
  -1   2  -3 3745.71 152.959   1
   1   1  -3 5041.01 163.910  -2
  -1   2  -2 5041.01 163.910   1
  -1   2  -2 1919.84 146.572   1
   1   1  -2 23141.1 234.285  -2
  -1   2  -1 23141.1 234.285   1
  -1   2  -1 9400.86 228.293   1
   1   1  -1 18943.8 313.944  -2
  -1   2   0 18943.8 313.944   1
  -1   2   0 10048.4 108.609   1
   1   1   0 1868.02 60.2424  -2
  -1   2   1 1868.02 60.2424   1
   1   1   1 12663.2 119.867  -2
  -1   2   2 12663.2 119.867   1
   1   1   2 13869.2 133.309  -2
  -1   2   3 13869.2 133.309   1
   1   1   3 7910.88 111.046  -2
  -1   2   4 7910.88 111.046   1
   1   1   4 7414.48 132.786  -2
  -1   2   5 7414.48 132.786   1
   1   1   5 1565.40 83.0580  -2
  -1   2   6 1565.40 83.0580   1
   1   1   6 4791.60 109.557  -2
  -1   2   7 4791.60 109.557   1
   1   1   7 8008.43 157.700  -2
  -1   2   8 8008.43 157.700   1
   1   1   8 11813.7 197.174  -2
  -1   2   9 11813.7 197.174   1
   1   1   9 9240.26 201.022  -2
  -1   2  10 9240.26 201.022   1
   1   1  10 2979.67 350.121  -2
  -1   2  11 2979.67 350.121   1
   1   1  11 2557.68 352.999  -2
  -1   2  12 2557.68 352.999   1
   1   1  12 3251.72 403.227  -2
  -1   2  13 3251.72 403.227   1
   1   1  13 3087.07 424.356  -2
  -1   2  14 3087.07 424.356   1
   1   1  14 1897.31 389.859  -2
  -1   2  15 1897.31 389.859   1
   1   2 -20 1127.30 474.841  -2
  -1   3 -19 1127.30 474.841   1
   1   2 -19 1403.37 456.470  -2
  -1   3 -18 1403.37 456.470   1
   1   2 -18 2004.21 483.363  -2
  -1   3 -17 2004.21 483.363   1
   1   2 -17 2632.50 455.155  -2
  -1   3 -16 2632.50 455.155   1
   1   2 -16 3220.17 453.721  -2
  -1   3 -15 3220.17 453.721   1
   1   2 -15 5269.42 499.129  -2
  -1   3 -14 5269.42 499.129   1
   1   2 -14 4943.14 452.719  -2
  -1   3 -13 4943.14 452.719   1
   1   2 -13 3501.28 405.985  -2
  -1   3 -12 3501.28 405.985   1
  -1   3 -12 1070.27 99.6537   1
   1   2 -12 1242.04 93.0000  -2
  -1   3 -11 1242.04 93.0000   1
   1   2 -11 2704.50 120.648  -2
  -1   3 -10 2704.50 120.648   1
   1   2 -10 4320.64 143.205  -2
  -1   3  -9 4320.64 143.205   1
   1   2  -9 8345.42 269.278  -2
  -1   3  -8 8345.42 269.278   1
   1   2  -8 22824.4 416.184  -2
  -1   3  -7 22824.4 416.184   1
   1   2  -7 16463.3 349.104  -2
  -1   3  -6 16463.3 349.104   1
   1   2  -6 9194.76 199.537  -2
  -1   3  -5 9194.76 199.537   1
   1   2  -5 12547.5 241.436  -2
  -1   3  -4 12547.5 241.436   1
   1   2  -4 6949.37 185.615  -2
  -1   3  -3 6949.37 185.615   1
   1   2  -3 2191.13 135.421  -2
  -1   3  -2 2191.13 135.421   1
  -1   3  -2 1862.91 178.051   1
   1   2  -2 70561.5 476.482  -2
  -1   3  -1 70561.5 476.482   1
   1   2  -1 58060.6 232.623  -2
  -1   3   0 58060.6 232.623   1
   1   2   0 48709.2 242.723  -2
  -1   3   1 48709.2 242.723   1
   1   2   1 21174.8 193.665  -2
  -1   3   2 21174.8 193.665   1
   1   2   2 7220.57 122.427  -2
  -1   3   3 7220.57 122.427   1
   1   2   3 4002.22 118.460  -2
  -1   3   4 4002.22 118.460   1
   1   2   4 41265.7 374.091  -2
  -1   3   5 41265.7 374.091   1
   1   2   5 16257.5 291.306  -2
  -1   3   6 16257.5 291.306   1
   1   2   6 11292.9 256.884  -2
  -1   3   7 11292.9 256.884   1
   1   2   7 6018.69 168.927  -2
  -1   3   8 6018.69 168.927   1
   1   2   8 12514.8 252.949  -2
  -1   3   9 12514.8 252.949   1
   1   2   9 10244.4 213.130  -2
  -1   3  10 10244.4 213.130   1
   1   2  10 10084.8 263.894  -2
  -1   3  11 10084.8 263.894   1
   1   2  11 2159.08 339.982  -2
  -1   3  12 2159.08 339.982   1
   1   2  12 1285.37 331.201  -2
  -1   3  13 1285.37 331.201   1
   1   2  13 2811.84 417.756  -2
  -1   3  14 2811.84 417.756   1
   1   2  14 3271.00 461.334  -2
  -1   3  15 3271.00 461.334   1
   1   3 -20 758.681 448.173  -2
  -1   4 -19 758.681 448.173   1
   1   3 -19 1318.52 457.301  -2
  -1   4 -18 1318.52 457.301   1
   1   3 -18 1275.54 444.517  -2
  -1   4 -17 1275.54 444.517   1
   1   3 -17 3633.34 492.014  -2
  -1   4 -16 3633.34 492.014   1
   1   3 -16 2780.15 444.163  -2
  -1   4 -15 2780.15 444.163   1
   1   3 -15 8032.47 561.404  -2
  -1   4 -14 8032.47 561.404   1
   1   3 -14 4463.49 443.438  -2
  -1   4 -13 4463.49 443.438   1
   1   3 -13 8756.13 274.620  -2
  -1   4 -12 8756.13 274.620   1
   1   3 -12 5028.33 174.755  -2
  -1   4 -11 5028.33 174.755   1
   1   3 -11 3592.90 202.304  -2
  -1   4 -10 3592.90 202.304   1
   1   3 -10 1992.81 190.810  -2
  -1   4  -9 1992.81 190.810   1
   1   3  -9 11214.2 355.929  -2
  -1   4  -8 11214.2 355.929   1
   1   3  -8 19786.5 374.212  -2
  -1   4  -7 19786.5 374.212   1
   1   3  -7 30832.0 450.602  -2
  -1   4  -6 30832.0 450.602   1
   1   3  -6 9683.58 261.744  -2
  -1   4  -5 9683.58 261.744   1
   1   3  -5 1912.94 180.602  -2
  -1   4  -4 1912.94 180.602   1
   1   3  -4 11971.3 269.716  -2
  -1   4  -3 11971.3 269.716   1
   1   3  -3 5329.55 173.933  -2
  -1   4  -2 5329.55 173.933   1
   1   3  -2 17537.0 216.423  -2
  -1   4  -1 17537.0 216.423   1
   1   3  -1 7238.94 124.596  -2
  -1   4   0 7238.94 124.596   1
   1   3   0 4794.53 104.535  -2
  -1   4   1 4794.53 104.535   1
   1   3   1 2975.69 110.555  -2
  -1   4   2 2975.69 110.555   1
   1   3   2 32666.1 308.130  -2
  -1   4   3 32666.1 308.130   1
   1   3   3 8281.64 191.614  -2
  -1   4   4 8281.64 191.614   1
   1   3   4 6375.41 205.810  -2
  -1   4   5 6375.41 205.810   1
   1   3   5 4122.48 184.100  -2
  -1   4   6 4122.48 184.100   1
   1   3   6 7964.36 303.500  -2
  -1   4   7 7964.36 303.500   1
   1   3   7 4075.70 236.730  -2
  -1   4   8 4075.70 236.730   1
   1   3   8 7983.00 309.115  -2
  -1   4   9 7983.00 309.115   1
   1   3   9 5293.75 282.821  -2
  -1   4  10 5293.75 282.821   1
   1   3  10 3958.07 274.399  -2
  -1   4  11 3958.07 274.399   1
   1   3  11 5651.55 471.261  -2
  -1   4  12 5651.55 471.261   1
   1   3  12 1695.40 357.947  -2
  -1   4  13 1695.40 357.947   1
   1   3  13 1648.94 380.224  -2
  -1   4  14 1648.94 380.224   1
   1   4 -20 1020.31 455.423  -2
  -1   5 -19 1020.31 455.423   1
   1   4 -19 1467.34 453.059  -2
  -1   5 -18 1467.34 453.059   1
   1   4 -18 1677.62 431.224  -2
  -1   5 -17 1677.62 431.224   1
   1   4 -17 1078.74 379.024  -2
  -1   5 -16 1078.74 379.024   1
   1   4 -16 2591.63 422.845  -2
  -1   5 -15 2591.63 422.845   1
   1   4 -15 7099.79 527.518  -2
  -1   5 -14 7099.79 527.518   1
   1   4 -14 6345.35 277.890  -2
  -1   5 -13 6345.35 277.890   1
   1   4 -13 3051.70 366.341  -2
  -1   5 -12 3051.70 366.341   1
   1   4 -12 2590.29 312.288  -2
  -1   5 -11 2590.29 312.288   1
   1   4 -11 3371.39 324.062  -2
  -1   5 -10 3371.39 324.062   1
   1   4 -10 3231.89 442.474  -2
  -1   5  -9 3231.89 442.474   1
   1   4  -9 4031.93 325.341  -2
  -1   5  -8 4031.93 325.341   1
   1   4  -8 6985.34 343.119  -2
  -1   5  -7 6985.34 343.119   1
   1   4  -7 7791.06 348.303  -2
  -1   5  -6 7791.06 348.303   1
   1   4  -6 19699.0 460.902  -2
  -1   5  -5 19699.0 460.902   1
   1   4  -5 9511.10 556.636  -2
  -1   5  -4 9511.10 556.636   1
   1   4  -4 4233.64 371.717  -2
  -1   5  -3 4233.64 371.717   1
   1   4  -3 469.591 125.584  -2
  -1   5  -2 469.591 125.584   1
   1   4  -2 7801.35 216.931  -2
  -1   5  -1 7801.35 216.931   1
   1   4  -1 27115.6 275.038  -2
  -1   5   0 27115.6 275.038   1
   1   4   0 52035.8 382.090  -2
  -1   5   1 52035.8 382.090   1
   1   4   1 2989.04 127.977  -2
  -1   5   2 2989.04 127.977   1
   1   4   2 19277.5 331.658  -2
  -1   5   3 19277.5 331.658   1
   1   4   3 8993.39 321.517  -2
  -1   5   4 8993.39 321.517   1
   1   4   4 6659.06 503.064  -2
  -1   5   5 6659.06 503.064   1
   1   4   5 3074.60 408.176  -2
  -1   5   6 3074.60 408.176   1
   1   4   6 12688.7 723.678  -2
  -1   5   7 12688.7 723.678   1
   1   4   7 5311.34 586.644  -2
  -1   5   8 5311.34 586.644   1
   1   4   8 9761.36 768.492  -2
  -1   5   9 9761.36 768.492   1
   1   4   9 6907.08 689.833  -2
  -1   5  10 6907.08 689.833   1
   1   4  10 6225.30 339.097  -2
  -1   5  11 6225.30 339.097   1
   1   4  12 2459.65 418.119  -2
  -1   5  13 2459.65 418.119   1
   1   5 -20 786.637 443.299  -2
  -1   6 -19 786.637 443.299   1
   1   5 -19 1052.13 437.333  -2
  -1   6 -18 1052.13 437.333   1
   1   5 -18 1225.31 407.299  -2
  -1   6 -17 1225.31 407.299   1
   1   5 -17 3675.96 476.842  -2
  -1   6 -16 3675.96 476.842   1
   1   5 -16 2056.20 405.404  -2
  -1   6 -15 2056.20 405.404   1
   1   5 -15 3765.16 413.959  -2
  -1   6 -14 3765.16 413.959   1
   1   5 -14 6369.74 484.296  -2
  -1   6 -13 6369.74 484.296   1
   1   5 -13 10387.1 522.551  -2
  -1   6 -12 10387.1 522.551   1
   1   5 -12 4559.86 374.057  -2
  -1   6 -11 4559.86 374.057   1
   1   5 -11 2142.77 232.551  -2
  -1   6 -10 2142.77 232.551   1
   1   5 -10 1147.75 199.605  -2
  -1   6  -9 1147.75 199.605   1
   1   5  -9 2585.91 287.695  -2
  -1   6  -8 2585.91 287.695   1
   1   5  -8 16188.0 520.681  -2
  -1   6  -7 16188.0 520.681   1
   1   5  -7 11340.5 400.585  -2
  -1   6  -6 11340.5 400.585   1
   1   5  -6 7931.23 345.351  -2
  -1   6  -5 7931.23 345.351   1
   1   5  -5 9539.26 332.817  -2
  -1   6  -4 9539.26 332.817   1
   1   5  -4 4395.70 446.039  -2
  -1   6  -3 4395.70 446.039   1
   1   5  -3 1122.36 138.422  -2
  -1   6  -2 1122.36 138.422   1
   1   5  -2 5581.46 148.566  -2
  -1   6  -1 5581.46 148.566   1
   1   5  -1 7848.38 169.431  -2
  -1   6   0 7848.38 169.431   1
   1   5   0 13547.2 236.173  -2
  -1   6   1 13547.2 236.173   1
   1   5   1 13422.9 268.978  -2
  -1   6   2 13422.9 268.978   1
   1   5   2 5334.62 214.349  -2
  -1   6   3 5334.62 214.349   1
   1   5   3 1437.88 182.237  -2
  -1   6   4 1437.88 182.237   1
   1   5   4 5681.73 520.683  -2
  -1   6   5 5681.73 520.683   1
   1   5   5 4515.87 511.951  -2
  -1   6   6 4515.87 511.951   1
   1   5   6 7120.23 619.523  -2
  -1   6   7 7120.23 619.523   1
   1   5   7 5829.81 613.982  -2
  -1   6   8 5829.81 613.982   1
   1   5   8 4637.40 597.193  -2
  -1   6   9 4637.40 597.193   1
   1   5   9 4691.42 660.635  -2
  -1   6  10 4691.42 660.635   1
   1   5  10 4301.34 668.135  -2
  -1   6  11 4301.34 668.135   1
   1   5  11 3465.38 665.877  -2
  -1   6  12 3465.38 665.877   1
   1   6 -19 436.173 293.579  -2
  -1   7 -18 436.173 293.579   1
   1   6 -18 1697.75 419.186  -2
  -1   7 -17 1697.75 419.186   1
   1   6 -17 1020.40 377.353  -2
  -1   7 -16 1020.40 377.353   1
   1   6 -16 3336.99 419.439  -2
  -1   7 -15 3336.99 419.439   1
   1   6 -15 2679.53 395.357  -2
  -1   7 -14 2679.53 395.357   1
   1   6 -14 4555.58 415.142  -2
  -1   7 -13 4555.58 415.142   1
   1   6 -13 2989.64 345.489  -2
  -1   7 -12 2989.64 345.489   1
   1   6 -12 3743.09 286.145  -2
  -1   7 -11 3743.09 286.145   1
   1   6 -11 4322.19 290.259  -2
  -1   7 -10 4322.19 290.259   1
   1   6 -10 3263.74 240.011  -2
  -1   7  -9 3263.74 240.011   1
   1   6  -9 1448.58 250.792  -2
  -1   7  -8 1448.58 250.792   1
   1   6  -8 11298.9 454.527  -2
  -1   7  -7 11298.9 454.527   1
   1   6  -7 9430.11 407.600  -2
  -1   7  -6 9430.11 407.600   1
   1   6  -6 16497.1 444.660  -2
  -1   7  -5 16497.1 444.660   1
   1   6  -5 7573.10 310.595  -2
  -1   7  -4 7573.10 310.595   1
   1   6  -4 4140.58 155.743  -2
  -1   7  -3 4140.58 155.743   1
   1   6  -3 1158.38 140.559  -2
  -1   7  -2 1158.38 140.559   1
   1   6  -2 12103.4 200.999  -2
  -1   7  -1 12103.4 200.999   1
   1   6  -1 8269.99 172.321  -2
  -1   7   0 8269.99 172.321   1
   1   6   0 12851.7 240.686  -2
  -1   7   1 12851.7 240.686   1
   1   6   1 14679.5 327.973  -2
  -1   7   2 14679.5 327.973   1
   1   6   2 10116.5 280.586  -2
  -1   7   3 10116.5 280.586   1
   1   6   3 2726.06 197.282  -2
  -1   7   4 2726.06 197.282   1
   1   6   4 10576.7 700.354  -2
  -1   7   5 10576.7 700.354   1
   1   6   5 3388.87 489.610  -2
  -1   7   6 3388.87 489.610   1
   1   6   6 3981.56 555.357  -2
  -1   7   7 3981.56 555.357   1
   1   6   7 6056.49 675.542  -2
  -1   7   8 6056.49 675.542   1
   1   6   8 7374.22 743.552  -2
  -1   7   9 7374.22 743.552   1
   1   6   9 5076.77 688.762  -2
  -1   7  10 5076.77 688.762   1
   1   6  10 4757.33 719.087  -2
  -1   7  11 4757.33 719.087   1
   1   6  11 3388.21 693.623  -2
  -1   7  12 3388.21 693.623   1
   1   6  12 2896.87 721.670  -2
  -1   7  13 2896.87 721.670   1
   1   7 -19 1364.84 428.196  -2
  -1   8 -18 1364.84 428.196   1
   1   7 -18 1864.21 419.952  -2
  -1   8 -17 1864.21 419.952   1
   1   7 -17 1632.84 386.626  -2
  -1   8 -16 1632.84 386.626   1
   1   7 -16 3809.80 440.095  -2
  -1   8 -15 3809.80 440.095   1
   1   7 -15 3139.08 393.253  -2
  -1   8 -14 3139.08 393.253   1
   1   7 -14 4644.57 406.935  -2
  -1   8 -13 4644.57 406.935   1
   1   7 -13 3216.27 292.755  -2
  -1   8 -12 3216.27 292.755   1
   1   7 -12 2870.81 267.928  -2
  -1   8 -11 2870.81 267.928   1
   1   7 -11 1544.40 216.975  -2
  -1   8 -10 1544.40 216.975   1
   1   7 -10 3245.58 239.710  -2
  -1   8  -9 3245.58 239.710   1
   1   7  -9 2707.69 209.348  -2
  -1   8  -8 2707.69 209.348   1
   1   7  -8 2647.35 280.939  -2
  -1   8  -7 2647.35 280.939   1
   1   7  -7 4417.52 302.466  -2
  -1   8  -6 4417.52 302.466   1
   1   7  -6 5120.27 292.059  -2
  -1   8  -5 5120.27 292.059   1
   1   7  -5 5337.85 179.750  -2
  -1   8  -4 5337.85 179.750   1
   1   7  -4 11865.6 226.353  -2
  -1   8  -3 11865.6 226.353   1
   1   7  -3 1780.37 84.6274  -2
  -1   8  -2 1780.37 84.6274   1
   1   7  -2 1303.93 159.237  -2
  -1   8  -1 1303.93 159.237   1
   1   7  -1 1695.55 184.088  -2
  -1   8   0 1695.55 184.088   1
   1   7   0 4007.97 138.614  -2
  -1   8   1 4007.97 138.614   1
   1   7   1 6060.48 221.084  -2
  -1   8   2 6060.48 221.084   1
   1   7   2 6388.47 238.147  -2
  -1   8   3 6388.47 238.147   1
   1   7   3 4354.68 226.598  -2
  -1   8   4 4354.68 226.598   1
   1   7   4 4284.57 376.625  -2
  -1   8   5 4284.57 376.625   1
   1   7   5 2775.64 359.765  -2
  -1   8   6 2775.64 359.765   1
   1   7   6 3839.54 592.873  -2
  -1   8   7 3839.54 592.873   1
   1   7   7 3548.46 609.306  -2
  -1   8   8 3548.46 609.306   1
   1   7   8 3403.22 608.096  -2
  -1   8   9 3403.22 608.096   1
   1   7   9 3905.24 662.811  -2
  -1   8  10 3905.24 662.811   1
   1   7  10 2483.32 633.089  -2
  -1   8  11 2483.32 633.089   1
   1   7  11 3053.77 721.811  -2
  -1   8  12 3053.77 721.811   1
   1   7  12 1952.74 664.375  -2
  -1   8  13 1952.74 664.375   1
   1   8 -19 1543.51 653.490  -2
  -1   9 -18 1543.51 653.490   1
   1   8 -18 970.599 379.296  -2
  -1   9 -17 970.599 379.296   1
   1   8 -17 1439.68 377.147  -2
  -1   9 -16 1439.68 377.147   1
   1   8 -16 3236.71 411.471  -2
  -1   9 -15 3236.71 411.471   1
   1   8 -15 1934.48 329.701  -2
  -1   9 -14 1934.48 329.701   1
   1   8 -14 2996.47 306.554  -2
  -1   9 -13 2996.47 306.554   1
   1   8 -13 2053.45 268.495  -2
  -1   9 -12 2053.45 268.495   1
   1   8 -12 7451.20 353.445  -2
  -1   9 -11 7451.20 353.445   1
   1   8 -11 2821.57 241.478  -2
  -1   9 -10 2821.57 241.478   1
   1   8 -10 3597.85 240.445  -2
  -1   9  -9 3597.85 240.445   1
   1   8  -9 2768.04 208.579  -2
  -1   9  -8 2768.04 208.579   1
   1   8  -8 4170.60 211.218  -2
  -1   9  -7 4170.60 211.218   1
   1   8  -7 6313.91 337.222  -2
  -1   9  -6 6313.91 337.222   1
   1   8  -6 12392.9 257.872  -2
  -1   9  -5 12392.9 257.872   1
   1   8  -5 4137.45 149.389  -2
  -1   9  -4 4137.45 149.389   1
   1   8  -4 5814.88 132.195  -2
  -1   9  -3 5814.88 132.195   1
   1   8  -3 2822.88 186.524  -2
  -1   9  -2 2822.88 186.524   1
   1   8  -2 2702.69 202.884  -2
  -1   9  -1 2702.69 202.884   1
   1   8  -1 2797.57 225.381  -2
  -1   9   0 2797.57 225.381   1
   1   8   0 9268.99 666.736  -2
  -1   9   1 9268.99 666.736   1
   1   8   1 1769.53 415.051  -2
  -1   9   2 1769.53 415.051   1
   1   8   2 13320.5 569.703  -2
  -1   9   3 13320.5 569.703   1
   1   8   3 9034.41 500.597  -2
  -1   9   4 9034.41 500.597   1
   1   8   4 3487.83 379.396  -2
  -1   9   5 3487.83 379.396   1
   1   8   5 3063.08 379.206  -2
  -1   9   6 3063.08 379.206   1
   1   8   6 4318.15 431.577  -2
  -1   9   7 4318.15 431.577   1
   1   8   7 1983.28 378.375  -2
  -1   9   8 1983.28 378.375   1
   1   8   8 6032.62 754.726  -2
  -1   9   9 6032.62 754.726   1
   1   8   9 2399.94 648.364  -2
  -1   9  10 2399.94 648.364   1
   1   8  10 3717.61 745.083  -2
  -1   9  11 3717.61 745.083   1
   1   8  11 1430.88 667.921  -2
  -1   9  12 1430.88 667.921   1
   1   8  12 2310.31 753.119  -2
  -1   9  13 2310.31 753.119   1
   1   9 -18 835.602 547.720  -2
  -1  10 -17 835.602 547.720   1
   1   9 -17 1002.66 520.161  -2
  -1  10 -16 1002.66 520.161   1
   1   9 -16 1237.07 523.203  -2
  -1  10 -15 1237.07 523.203   1
   1   9 -15 2391.51 407.614  -2
  -1  10 -14 2391.51 407.614   1
   1   9 -14 4465.52 465.859  -2
  -1  10 -13 4465.52 465.859   1
   1   9 -13 3056.57 389.361  -2
  -1  10 -12 3056.57 389.361   1
   1   9 -12 1918.37 339.885  -2
  -1  10 -11 1918.37 339.885   1
   1   9 -11 1718.76 215.667  -2
  -1  10 -10 1718.76 215.667   1
   1   9 -10 2028.79 195.872  -2
  -1  10  -9 2028.79 195.872   1
   1   9  -9 2008.83 181.935  -2
  -1  10  -8 2008.83 181.935   1
   1   9  -8 2845.32 172.890  -2
  -1  10  -7 2845.32 172.890   1
   1   9  -7 2537.24 142.399  -2
  -1  10  -6 2537.24 142.399   1
   1   9  -6 4766.80 265.188  -2
  -1  10  -5 4766.80 265.188   1
   1   9  -5 7310.87 256.370  -2
  -1  10  -4 7310.87 256.370   1
   1   9  -4 1799.36 129.981  -2
  -1  10  -3 1799.36 129.981   1
   1   9  -3 1954.31 468.395  -2
  -1  10  -2 1954.31 468.395   1
   1   9  -2 3017.54 495.988  -2
  -1  10  -1 3017.54 495.988   1
   1   9  -1 2617.52 479.652  -2
  -1  10   0 2617.52 479.652   1
   1   9   0 8804.10 702.703  -2
  -1  10   1 8804.10 702.703   1
   1   9   1 5003.96 581.018  -2
  -1  10   2 5003.96 581.018   1
   1   9   2 3863.59 392.583  -2
  -1  10   3 3863.59 392.583   1
   1   9   3 2952.52 377.696  -2
  -1  10   4 2952.52 377.696   1
   1   9   4 3617.66 407.739  -2
  -1  10   5 3617.66 407.739   1
   1   9   5 3324.21 411.985  -2
  -1  10   6 3324.21 411.985   1
   1   9   6 3631.15 446.837  -2
  -1  10   7 3631.15 446.837   1
   1   9   7 2415.96 421.327  -2
  -1  10   8 2415.96 421.327   1
   1   9   8 2788.23 447.129  -2
  -1  10   9 2788.23 447.129   1
   1   9   9 2760.98 472.944  -2
  -1  10  10 2760.98 472.944   1
   1   9  10 3151.74 508.806  -2
  -1  10  11 3151.74 508.806   1
   1   9  11 2534.95 772.203  -2
  -1  10  12 2534.95 772.203   1
   1  10 -17 1413.22 560.939  -2
  -1  11 -16 1413.22 560.939   1
   1  10 -16 2587.25 458.517  -2
  -1  11 -15 2587.25 458.517   1
   1  10 -15 2159.83 408.234  -2
  -1  11 -14 2159.83 408.234   1
   1  10 -14 3821.05 446.762  -2
  -1  11 -13 3821.05 446.762   1
   1  10 -13 3074.24 399.541  -2
  -1  11 -12 3074.24 399.541   1
   1  10 -12 2403.18 359.827  -2
  -1  11 -11 2403.18 359.827   1
   1  10 -11 3753.15 383.751  -2
  -1  11 -10 3753.15 383.751   1
   1  10 -10 3185.65 337.689  -2
  -1  11  -9 3185.65 337.689   1
   1  10  -9 1674.74 272.347  -2
  -1  11  -8 1674.74 272.347   1
   1  10  -8 6118.06 354.266  -2
  -1  11  -7 6118.06 354.266   1
   1  10  -7 6518.43 764.751  -2
  -1  11  -6 6518.43 764.751   1
   1  10  -6 5717.65 744.391  -2
  -1  11  -5 5717.65 744.391   1
   1  10  -5 2784.67 573.404  -2
  -1  11  -4 2784.67 573.404   1
   1  10  -4 5415.57 668.504  -2
  -1  11  -3 5415.57 668.504   1
   1  10  -3 4532.29 615.486  -2
  -1  11  -2 4532.29 615.486   1
   1  10  -2 4195.73 600.637  -2
  -1  11  -1 4195.73 600.637   1
   1  10  -1 1110.02 451.583  -2
  -1  11   0 1110.02 451.583   1
   1  10   0 3827.81 583.518  -2
  -1  11   1 3827.81 583.518   1
   1  10   1 5189.49 450.279  -2
  -1  11   2 5189.49 450.279   1
   1  10   2 7955.09 540.248  -2
  -1  11   3 7955.09 540.248   1
   1  10   3 3500.30 414.285  -2
  -1  11   4 3500.30 414.285   1
   1  10   4 4076.68 452.445  -2
  -1  11   5 4076.68 452.445   1
   1  10   5 1600.33 385.217  -2
  -1  11   6 1600.33 385.217   1
   1  10   6 1677.68 398.266  -2
  -1  11   7 1677.68 398.266   1
   1  10   7 1524.19 416.021  -2
  -1  11   8 1524.19 416.021   1
   1  10   8 2945.42 486.849  -2
  -1  11   9 2945.42 486.849   1
   1  10   9 1847.93 456.366  -2
  -1  11  10 1847.93 456.366   1
   1  11 -17 495.099 618.675  -2
  -1  12 -16 495.099 618.675   1
   1  11 -16 994.517 634.616  -2
  -1  12 -15 994.517 634.616   1
   1  11 -15 2219.96 681.003  -2
  -1  12 -14 2219.96 681.003   1
   1  11 -14 2569.04 696.280  -2
  -1  12 -13 2569.04 696.280   1
   1  11 -13 1796.74 649.573  -2
  -1  12 -12 1796.74 649.573   1
   1  11 -12 1652.15 625.549  -2
  -1  12 -11 1652.15 625.549   1
   1  11 -11 2042.67 609.304  -2
  -1  12 -10 2042.67 609.304   1
   1  11 -10 4691.49 750.616  -2
  -1  12  -9 4691.49 750.616   1
   1  11  -9 1908.72 567.806  -2
  -1  12  -8 1908.72 567.806   1
   1  11  -8 1452.00 551.094  -2
  -1  12  -7 1452.00 551.094   1
   1  11  -7 1612.88 572.999  -2
  -1  12  -6 1612.88 572.999   1
   1  11  -6 3628.50 665.954  -2
  -1  12  -5 3628.50 665.954   1
   1  11  -5 3519.50 651.033  -2
  -1  12  -4 3519.50 651.033   1
   1  11  -4 5637.47 716.661  -2
  -1  12  -3 5637.47 716.661   1
   1  11  -3 1479.28 515.107  -2
  -1  12  -2 1479.28 515.107   1
   1  11  -2 1302.04 496.891  -2
  -1  12  -1 1302.04 496.891   1
   1  11  -1 375.774 443.782  -2
  -1  12   0 375.774 443.782   1
   1  11   0 2706.01 545.052  -2
  -1  12   1 2706.01 545.052   1
   1  11   1 2201.27 394.660  -2
  -1  12   2 2201.27 394.660   1
   1  11   2 3575.90 452.940  -2
  -1  12   3 3575.90 452.940   1
   1  11   3 2981.82 448.246  -2
  -1  12   4 2981.82 448.246   1
   1  11   4 3630.68 476.779  -2
  -1  12   5 3630.68 476.779   1
   1  11   5 1810.60 424.093  -2
  -1  12   6 1810.60 424.093   1
   1  11   6 1859.92 446.980  -2
  -1  12   7 1859.92 446.980   1
   1  11   7 2101.78 458.538  -2
  -1  12   8 2101.78 458.538   1
   1  11   8 2054.47 483.140  -2
  -1  12   9 2054.47 483.140   1
   1  12 -15 1397.19 695.961  -2
  -1  13 -14 1397.19 695.961   1
   1  12 -14 1831.08 698.780  -2
  -1  13 -13 1831.08 698.780   1
   1  12 -13 2541.73 705.703  -2
  -1  13 -12 2541.73 705.703   1
   1  12 -12 4707.65 783.237  -2
  -1  13 -11 4707.65 783.237   1
   1  12 -11 1241.74 605.614  -2
  -1  13 -10 1241.74 605.614   1
   1  12 -10 1038.37 620.586  -2
  -1  13  -9 1038.37 620.586   1
   1  12  -9 2596.34 669.531  -2
  -1  13  -8 2596.34 669.531   1
   1  12  -8 1482.24 617.451  -2
  -1  13  -7 1482.24 617.451   1
   1  12  -7 1741.22 633.692  -2
  -1  13  -6 1741.22 633.692   1
   1  12  -6 4686.13 778.294  -2
  -1  13  -5 4686.13 778.294   1
   1  12  -5 3388.83 680.599  -2
  -1  13  -4 3388.83 680.599   1
   1  12  -4 6024.21 778.953  -2
  -1  13  -3 6024.21 778.953   1
   1  12  -3 2026.60 566.779  -2
  -1  13  -2 2026.60 566.779   1
   1  12  -2 1921.27 578.830  -2
  -1  13  -1 1921.27 578.830   1
   1  12  -1 1697.86 571.667  -2
  -1  13   0 1697.86 571.667   1
   1  12   0 4026.51 490.791  -2
  -1  13   1 4026.51 490.791   1
   1  12   1 2651.19 445.767  -2
  -1  13   2 2651.19 445.767   1
   1  12   2 6610.35 586.969  -2
  -1  13   3 6610.35 586.969   1
   1  12   3 2199.43 444.743  -2
  -1  13   4 2199.43 444.743   1
   1  12   4 3633.81 504.168  -2
  -1  13   5 3633.81 504.168   1
   1  12   5 1398.03 439.153  -2
  -1  13   6 1398.03 439.153   1
   1  12   6 1799.46 465.735  -2
  -1  13   7 1799.46 465.735   1
   1  13 -14 2107.27 731.319  -2
  -1  14 -13 2107.27 731.319   1
   1  13 -13 2390.28 718.890  -2
  -1  14 -12 2390.28 718.890   1
   1  13 -12 1531.33 686.668  -2
  -1  14 -11 1531.33 686.668   1
   1  13 -11 1439.55 641.926  -2
  -1  14 -10 1439.55 641.926   1
   1  13 -10 1453.27 648.492  -2
  -1  14  -9 1453.27 648.492   1
   1  13  -9 573.609 583.687  -2
  -1  14  -8 573.609 583.687   1
   1  13  -8 1768.32 668.540  -2
  -1  14  -7 1768.32 668.540   1
   1  13  -7 1686.60 695.777  -2
  -1  14  -6 1686.60 695.777   1
   1  13  -6 2628.03 744.759  -2
  -1  14  -5 2628.03 744.759   1
   1  13  -5 1228.08 627.618  -2
  -1  14  -4 1228.08 627.618   1
   1  13  -4 1379.79 642.013  -2
  -1  14  -3 1379.79 642.013   1
   1  13  -3 1623.35 613.016  -2
  -1  14  -2 1623.35 613.016   1
   1  13  -2 2590.54 684.207  -2
  -1  14  -1 2590.54 684.207   1
   1  13  -1 1054.39 586.493  -2
  -1  14   0 1054.39 586.493   1
   1  13   0 1507.63 432.639  -2
  -1  14   1 1507.63 432.639   1
   1  13   1 1530.78 433.645  -2
  -1  14   2 1530.78 433.645   1
   1  13   2 2379.32 468.571  -2
  -1  14   3 2379.32 468.571   1
   1  13   3 1373.05 454.926  -2
  -1  14   4 1373.05 454.926   1
   1  13   4 2157.42 505.231  -2
  -1  14   5 2157.42 505.231   1
   1  14 -11 1329.33 675.393  -2
  -1  15 -10 1329.33 675.393   1
   1  14 -10 2100.96 700.524  -2
  -1  15  -9 2100.96 700.524   1
   1  14  -9 579.763 618.381  -2
  -1  15  -8 579.763 618.381   1
   1  14  -8 1325.65 716.651  -2
  -1  15  -7 1325.65 716.651   1
   1  14  -7 762.288 670.347  -2
  -1  15  -6 762.288 670.347   1
   1  14  -6 1998.67 715.182  -2
  -1  15  -5 1998.67 715.182   1
   1  14  -5 1990.04 723.454  -2
  -1  15  -4 1990.04 723.454   1
   1  14  -4 3268.52 789.375  -2
  -1  15  -3 3268.52 789.375   1
   1  14  -3 1140.30 642.524  -2
  -1  15  -2 1140.30 642.524   1
   1  14  -2 2058.46 708.727  -2
  -1  15  -1 2058.46 708.727   1
   1  14  -1 884.812 432.865  -2
  -1  15   0 884.812 432.865   1
   1  14   0 1045.85 458.971  -2
  -1  15   1 1045.85 458.971   1
   0 -15   0 761.973 491.810  -2
   0 -15   0 761.973 491.810   1
   0 -15   1 4118.44 492.688  -2
   0 -15   1 4118.44 492.688   1
   0 -15   2 706.204 265.222  -2
   0 -15   2 706.204 265.222   1
   0 -15   3 4316.28 357.838  -2
   0 -15   3 4316.28 357.838   1
   0 -15   4 1802.07 292.098  -2
   0 -15   4 1802.07 292.098   1
   0 -15   5 3408.77 332.778  -2
   0 -15   5 3408.77 332.778   1
   0 -15   6 2030.61 415.988  -2
   0 -15   6 2030.61 415.988   1
   0 -15   7 4986.27 376.937  -2
   0 -15   7 4986.27 376.937   1
   0 -15   8 599.536 269.917  -2
   0 -15   8 599.536 269.917   1
   0 -15   9 1170.38 392.511  -2
   0 -15   9 1170.38 392.511   1
   0 -15  10 1262.04 422.720  -2
   0 -15  10 1262.04 422.720   1
   0 -14  -3 673.987 252.304  -2
   0 -14  -3 673.987 252.304   1
   0 -14  -2 3002.79 429.678  -2
   0 -14  -2 3002.79 429.678   1
   0 -14  -1 963.586 250.518  -2
   0 -14  -1 963.586 250.518   1
   0 -14   0 2354.03 289.381  -2
   0 -14   0 2354.03 289.381   1
   0 -14   1 711.294 348.398  -2
   0 -14   1 711.294 348.398   1
   0 -14   2 1824.88 273.904  -2
   0 -14   2 1824.88 273.904   1
   0 -14   3 1833.65 381.243  -2
   0 -14   3 1833.65 381.243   1
   0 -14   4 9586.25 430.803  -2
   0 -14   4 9586.25 430.803   1
   0 -14   5 1319.20 267.385  -2
   0 -14   5 1319.20 267.385   1
   0 -14   6 2453.92 287.290  -2
   0 -14   6 2453.92 287.290   1
   0 -14   7 1038.61 360.127  -2
   0 -14   7 1038.61 360.127   1
   0 -14   8 1871.20 384.214  -2
   0 -14   8 1871.20 384.214   1
   0 -14   9 627.934 261.546  -2
   0 -14   9 627.934 261.546   1
   0 -14  10 6971.19 403.033  -2
   0 -14  10 6971.19 403.033   1
   0 -14  11 2433.04 418.571  -2
   0 -14  11 2433.04 418.571   1
   0 -14  12 2570.88 433.777  -2
   0 -14  12 2570.88 433.777   1
   0 -14  13 1592.69 328.757  -2
   0 -14  13 1592.69 328.757   1
   0 -13  -6 13.1643 224.957  -2
   0 -13  -6 13.1643 224.957   1
   0 -13  -5 2648.01 419.522  -2
   0 -13  -5 2648.01 419.522   1
   0 -13  -4 805.480 247.387  -2
   0 -13  -4 805.480 247.387   1
   0 -13  -3 8333.53 400.192  -2
   0 -13  -3 8333.53 400.192   1
   0 -13  -2 742.910 214.039  -2
   0 -13  -2 742.910 214.039   1
   0 -13  -1 3828.92 307.795  -2
   0 -13  -1 3828.92 307.795   1
   0 -13   0 1999.91 260.941  -2
   0 -13   0 1999.91 260.941   1
   0 -13   1 4088.11 432.774  -2
   0 -13   1 4088.11 432.774   1
   0 -13   2 1448.39 236.866  -2
   0 -13   2 1448.39 236.866   1
   0 -13   3 6607.13 359.234  -2
   0 -13   3 6607.13 359.234   1
   0 -13   4 2453.67 276.053  -2
   0 -13   4 2453.67 276.053   1
   0 -13   5 4643.95 330.128  -2
   0 -13   5 4643.95 330.128   1
   0 -13   6 2039.99 259.457  -2
   0 -13   6 2039.99 259.457   1
   0 -13   7 3402.82 294.645  -2
   0 -13   7 3402.82 294.645   1
   0 -13   8 2048.23 266.222  -2
   0 -13   8 2048.23 266.222   1
   0 -13   9 3767.22 315.695  -2
   0 -13   9 3767.22 315.695   1
   0 -13  10 1969.33 378.676  -2
   0 -13  10 1969.33 378.676   1
   0 -13  11 3561.43 438.470  -2
   0 -13  11 3561.43 438.470   1
   0 -13  12 2185.44 393.913  -2
   0 -13  12 2185.44 393.913   1
   0 -13  13 2659.39 425.744  -2
   0 -13  13 2659.39 425.744   1
   0 -13  14 1062.46 265.851  -2
   0 -13  14 1062.46 265.851   1
   0 -12  -8 601.380 284.687  -2
   0 -12  -8 601.380 284.687   1
   0 -12  -7 484.852 241.396  -2
   0 -12  -7 484.852 241.396   1
   0 -12  -6 3335.16 303.929  -2
   0 -12  -6 3335.16 303.929   1
   0 -12  -5 388.662 215.751  -2
   0 -12  -5 388.662 215.751   1
   0 -12  -4 2553.89 379.794  -2
   0 -12  -4 2553.89 379.794   1
   0 -12  -3 644.057 297.775  -2
   0 -12  -3 644.057 297.775   1
   0 -12  -2 5151.46 319.279  -2
   0 -12  -2 5151.46 319.279   1
   0 -12  -1 396.570 195.840  -2
   0 -12  -1 396.570 195.840   1
   0 -12   0 8554.04 369.839  -2
   0 -12   0 8554.04 369.839   1
   0 -12   1 1224.05 218.658  -2
   0 -12   1 1224.05 218.658   1
   0 -12   2 3262.75 380.004  -2
   0 -12   2 3262.75 380.004   1
   0 -12   3 1552.56 178.673  -2
   0 -12   3 1552.56 178.673   1
   0 -12   4 10039.5 541.572  -2
   0 -12   4 10039.5 541.572   1
   0 -12   5 1449.92 221.553  -2
   0 -12   5 1449.92 221.553   1
   0 -12   6 10136.6 394.055  -2
   0 -12   6 10136.6 394.055   1
   0 -12   7 1485.06 230.431  -2
   0 -12   7 1485.06 230.431   1
   0 -12   8 6094.54 468.783  -2
   0 -12   8 6094.54 468.783   1
   0 -12   9 1093.95 241.719  -2
   0 -12   9 1093.95 241.719   1
   0 -12  10 2168.69 359.039  -2
   0 -12  10 2168.69 359.039   1
   0 -12  11 1314.29 234.722  -2
   0 -12  11 1314.29 234.722   1
   0 -12  12 5837.90 485.968  -2
   0 -12  12 5837.90 485.968   1
   0 -12  13 2274.03 287.704  -2
   0 -12  13 2274.03 287.704   1
   0 -12  14 2678.95 304.074  -2
   0 -12  14 2678.95 304.074   1
   0 -12  15 687.091 335.963  -2
   0 -12  15 687.091 335.963   1
   0 -12  16 553.354 638.699  -2
   0 -12  16 553.354 638.699   1
   0 -11  -9 3890.51 582.356  -2
   0 -11  -9 3890.51 582.356   1
   0 -11  -8 156.718 190.588  -2
   0 -11  -8 156.718 190.588   1
   0 -11  -7 2116.55 211.993  -2
   0 -11  -7 2116.55 211.993   1
   0 -11  -6 102.493 173.591  -2
   0 -11  -6 102.493 173.591   1
   0 -11  -5 7151.33 279.200  -2
   0 -11  -5 7151.33 279.200   1
   0 -11  -4 615.504 157.248  -2
   0 -11  -4 615.504 157.248   1
   0 -11  -3 8457.99 356.395  -2
   0 -11  -3 8457.99 356.395   1
   0 -11  -2 959.230 205.041  -2
   0 -11  -2 959.230 205.041   1
   0 -11  -1 5911.68 301.969  -2
   0 -11  -1 5911.68 301.969   1
   0 -11   0 1344.21 197.103  -2
   0 -11   0 1344.21 197.103   1
   0 -11   1 9518.92 361.390  -2
   0 -11   1 9518.92 361.390   1
   0 -11   2 2743.68 194.091  -2
   0 -11   2 2743.68 194.091   1
   0 -11   3 7273.31 322.983  -2
   0 -11   3 7273.31 322.983   1
   0 -11   4 3996.73 372.770  -2
   0 -11   4 3996.73 372.770   1
   0 -11   5 8213.93 343.579  -2
   0 -11   5 8213.93 343.579   1
   0 -11   6 2570.44 236.412  -2
   0 -11   6 2570.44 236.412   1
   0 -11   7 8630.99 508.002  -2
   0 -11   7 8630.99 508.002   1
   0 -11   8 1813.40 331.970  -2
   0 -11   8 1813.40 331.970   1
   0 -11   9 1797.39 237.269  -2
   0 -11   9 1797.39 237.269   1
   0 -11  10 1318.46 228.280  -2
   0 -11  10 1318.46 228.280   1
   0 -11  11 6460.17 477.137  -2
   0 -11  11 6460.17 477.137   1
   0 -11  12 2417.03 275.888  -2
   0 -11  12 2417.03 275.888   1
   0 -11  13 4230.38 504.320  -2
   0 -11  13 4230.38 504.320   1
   0 -11  14 1264.47 385.390  -2
   0 -11  14 1264.47 385.390   1
   0 -11  15 2864.43 474.717  -2
   0 -11  15 2864.43 474.717   1
   0 -11  16 33.3660 575.902  -2
   0 -11  16 33.3660 575.902   1
   0 -11  17 1513.17 720.336  -2
   0 -11  17 1513.17 720.336   1
   0 -10 -11 586.401 414.617  -2
   0 -10 -11 586.401 414.617   1
   0 -10 -10 3768.08 337.353  -2
   0 -10 -10 3768.08 337.353   1
   0 -10  -9 565.850 227.482  -2
   0 -10  -9 565.850 227.482   1
   0 -10  -8 3403.91 254.998  -2
   0 -10  -8 3403.91 254.998   1
   0 -10  -7 213.541 128.271  -2
   0 -10  -7 213.541 128.271   1
   0 -10  -6 4708.09 217.679  -2
   0 -10  -6 4708.09 217.679   1
   0 -10  -5 646.846 160.568  -2
   0 -10  -5 646.846 160.568   1
   0 -10  -4 8963.56 253.991  -2
   0 -10  -4 8963.56 253.991   1
   0 -10  -3 1226.40 163.628  -2
   0 -10  -3 1226.40 163.628   1
   0 -10  -2 14895.1 352.633  -2
   0 -10  -2 14895.1 352.633   1
   0 -10  -1 709.111 117.784  -2
   0 -10  -1 709.111 117.784   1
   0 -10   0 6327.20 189.952  -2
   0 -10   0 6327.20 189.952   1
   0 -10   1 517.115 139.260  -2
   0 -10   1 517.115 139.260   1
   0 -10   2 13052.1 409.826  -2
   0 -10   2 13052.1 409.826   1
   0 -10   3 1512.33 173.608  -2
   0 -10   3 1512.33 173.608   1
   0 -10   4 17595.5 374.157  -2
   0 -10   4 17595.5 374.157   1
   0 -10   5 2328.80 396.565  -2
   0 -10   5 2328.80 396.565   1
   0 -10   6 9434.68 376.225  -2
   0 -10   6 9434.68 376.225   1
   0 -10   7 1316.50 287.574  -2
   0 -10   7 1316.50 287.574   1
   0 -10   8 7703.12 330.978  -2
   0 -10   8 7703.12 330.978   1
   0 -10   9 735.230 193.835  -2
   0 -10   9 735.230 193.835   1
   0 -10  10 6372.73 440.737  -2
   0 -10  10 6372.73 440.737   1
   0 -10  11 1943.95 371.290  -2
   0 -10  11 1943.95 371.290   1
   0 -10  12 4949.45 499.026  -2
   0 -10  12 4949.45 499.026   1
   0 -10  13 1845.44 377.700  -2
   0 -10  13 1845.44 377.700   1
   0 -10  14 4727.78 507.280  -2
   0 -10  14 4727.78 507.280   1
   0 -10  15 935.170 245.720  -2
   0 -10  15 935.170 245.720   1
   0 -10  16 435.004 292.451  -2
   0 -10  16 435.004 292.451   1
   0 -10  17 602.825 288.753  -2
   0 -10  17 602.825 288.753   1
   0 -10  18 1020.66 671.249  -2
   0 -10  18 1020.66 671.249   1
   0  -9 -12 152.253 261.141  -2
   0  -9 -12 152.253 261.141   1
   0  -9 -11 4049.75 334.146  -2
   0  -9 -11 4049.75 334.146   1
   0  -9 -10 485.552 191.548  -2
   0  -9 -10 485.552 191.548   1
   0  -9  -9 8876.65 381.701  -2
   0  -9  -9 8876.65 381.701   1
   0  -9  -8 469.302 154.334  -2
   0  -9  -8 469.302 154.334   1
   0  -9  -7 3787.12 200.917  -2
   0  -9  -7 3787.12 200.917   1
   0  -9  -6 184.592 186.136  -2
   0  -9  -6 184.592 186.136   1
   0  -9  -5 4674.69 195.957  -2
   0  -9  -5 4674.69 195.957   1
   0  -9  -4 795.107 151.999  -2
   0  -9  -4 795.107 151.999   1
   0  -9  -3 19290.3 378.417  -2
   0  -9  -3 19290.3 378.417   1
   0  -9  -2 1810.06 135.073  -2
   0  -9  -2 1810.06 135.073   1
   0  -9  -1 12338.3 307.099  -2
   0  -9  -1 12338.3 307.099   1
   0  -9   0 2596.99 138.023  -2
   0  -9   0 2596.99 138.023   1
   0  -9   1 9986.81 235.606  -2
   0  -9   1 9986.81 235.606   1
   0  -9   2 1027.61 192.361  -2
   0  -9   2 1027.61 192.361   1
   0  -9   3 5491.91 284.408  -2
   0  -9   3 5491.91 284.408   1
   0  -9   4 2224.60 229.581  -2
   0  -9   4 2224.60 229.581   1
   0  -9   5 21625.1 506.629  -2
   0  -9   5 21625.1 506.629   1
   0  -9   6 4344.04 429.224  -2
   0  -9   6 4344.04 429.224   1
   0  -9   7 8754.25 280.054  -2
   0  -9   7 8754.25 280.054   1
   0  -9   8 1565.33 146.323  -2
   0  -9   8 1565.33 146.323   1
   0  -9   9 8208.43 320.596  -2
   0  -9   9 8208.43 320.596   1
   0  -9  10 919.484 212.598  -2
   0  -9  10 919.484 212.598   1
   0  -9  11 3662.91 313.721  -2
   0  -9  11 3662.91 313.721   1
   0  -9  12 926.113 241.966  -2
   0  -9  12 926.113 241.966   1
   0  -9  13 3426.27 340.454  -2
   0  -9  13 3426.27 340.454   1
   0  -9  14 1283.83 333.410  -2
   0  -9  14 1283.83 333.410   1
   0  -9  15 2867.21 412.777  -2
   0  -9  15 2867.21 412.777   1
   0  -9  16 65.6315 525.153  -2
   0  -9  16 65.6315 525.153   1
   0  -9  17 461.552 569.879  -2
   0  -9  17 461.552 569.879   1
   0  -9  18 1681.93 688.181  -2
   0  -9  18 1681.93 688.181   1
   0  -8 -13 121.427 416.757  -2
   0  -8 -13 121.427 416.757   1
   0  -8 -12 3301.38 534.898  -2
   0  -8 -12 3301.38 534.898   1
   0  -8 -11 316.169 219.615  -2
   0  -8 -11 316.169 219.615   1
   0  -8 -10 4230.73 232.349  -2
   0  -8 -10 4230.73 232.349   1
   0  -8  -9 497.944 176.672  -2
   0  -8  -9 497.944 176.672   1
   0  -8  -8 3042.26 153.113  -2
   0  -8  -8 3042.26 153.113   1
   0  -8  -7 241.354 116.853  -2
   0  -8  -7 241.354 116.853   1
   0  -8  -6 5412.97 185.796  -2
   0  -8  -6 5412.97 185.796   1
   0  -8  -5 844.688 111.169  -2
   0  -8  -5 844.688 111.169   1
   0  -8  -4 7002.41 179.106  -2
   0  -8  -4 7002.41 179.106   1
   0  -8  -3 369.938 77.2499  -2
   0  -8  -3 369.938 77.2499   1
   0  -8  -2 14118.9 194.540  -2
   0  -8  -2 14118.9 194.540   1
   0  -8  -1 447.512 99.6856  -2
   0  -8  -1 447.512 99.6856   1
   0  -8   0 17452.3 309.638  -2
   0  -8   0 17452.3 309.638   1
   0  -8   1 1108.08 90.9106  -2
   0  -8   1 1108.08 90.9106   1
   0  -8   2 15060.6 291.643  -2
   0  -8   2 15060.6 291.643   1
   0  -8   3 562.306 124.791  -2
   0  -8   3 562.306 124.791   1
   0  -8   4 17079.5 410.612  -2
   0  -8   4 17079.5 410.612   1
   0  -8   5 2191.02 155.708  -2
   0  -8   5 2191.02 155.708   1
   0  -8   6 26281.2 858.979  -2
   0  -8   6 26281.2 858.979   1
   0  -8   7 4589.98 282.267  -2
   0  -8   7 4589.98 282.267   1
   0  -8   8 26458.1 1286.19  -2
   0  -8   8 26458.1 1286.19   1
   0  -8   9 1268.34 218.927  -2
   0  -8   9 1268.34 218.927   1
   0  -8  10 1732.18 188.834  -2
   0  -8  10 1732.18 188.834   1
   0  -8  11 1957.88 199.242  -2
   0  -8  11 1957.88 199.242   1
   0  -8  12 12182.2 279.613  -2
   0  -8  12 12182.2 279.613   1
   0  -8  13 1823.25 200.820  -2
   0  -8  13 1823.25 200.820   1
   0  -8  14 6043.87 401.485  -2
   0  -8  14 6043.87 401.485   1
   0  -8  15 2217.57 281.845  -2
   0  -8  15 2217.57 281.845   1
   0  -8  16 2278.57 241.367  -2
   0  -8  16 2278.57 241.367   1
   0  -8  17 289.734 198.006  -2
   0  -8  17 289.734 198.006   1
   0  -8  18 302.407 300.606  -2
   0  -8  18 302.407 300.606   1
   0  -8  19-176.757 613.803  -2
   0  -8  19-176.757 613.803   1
   0  -7 -14 40.8685 238.280  -2
   0  -7 -14 40.8685 238.280   1
   0  -7 -13 1435.03 261.328  -2
   0  -7 -13 1435.03 261.328   1
   0  -7 -12 162.984 202.041  -2
   0  -7 -12 162.984 202.041   1
   0  -7 -11 5543.23 255.067  -2
   0  -7 -11 5543.23 255.067   1
   0  -7 -10 232.777 121.704  -2
   0  -7 -10 232.777 121.704   1
   0  -7  -9 11708.2 302.545  -2
   0  -7  -9 11708.2 302.545   1
   0  -7  -8 173.584 104.693  -2
   0  -7  -8 173.584 104.693   1
   0  -7  -7 8024.88 274.772  -2
   0  -7  -7 8024.88 274.772   1
   0  -7  -6 1470.21 151.154  -2
   0  -7  -6 1470.21 151.154   1
   0  -7  -5 21938.5 267.466  -2
   0  -7  -5 21938.5 267.466   1
   0  -7  -4 1839.99 141.592  -2
   0  -7  -4 1839.99 141.592   1
   0  -7  -3 13002.6 242.952  -2
   0  -7  -3 13002.6 242.952   1
   0  -7  -2 2257.75 99.0775  -2
   0  -7  -2 2257.75 99.0775   1
   0  -7  -1 43300.7 393.855  -2
   0  -7  -1 43300.7 393.855   1
   0  -7   0 2274.80 133.809  -2
   0  -7   0 2274.80 133.809   1
   0  -7   1 32429.7 354.785  -2
   0  -7   1 32429.7 354.785   1
   0  -7   2 3172.25 151.429  -2
   0  -7   2 3172.25 151.429   1
   0  -7   3 12558.9 336.398  -2
   0  -7   3 12558.9 336.398   1
   0  -7   4 1464.46 270.134  -2
   0  -7   4 1464.46 270.134   1
   0  -7   5 17253.9 312.779  -2
   0  -7   5 17253.9 312.779   1
   0  -7   6 1813.65 292.446  -2
   0  -7   6 1813.65 292.446   1
   0  -7   7 10489.8 441.455  -2
   0  -7   7 10489.8 441.455   1
   0  -7   8 3186.65 175.368  -2
   0  -7   8 3186.65 175.368   1
   0  -7   9 8970.20 213.649  -2
   0  -7   9 8970.20 213.649   1
   0  -7  10 882.575 149.842  -2
   0  -7  10 882.575 149.842   1
   0  -7  11 2718.57 211.687  -2
   0  -7  11 2718.57 211.687   1
   0  -7  12 2776.15 149.688  -2
   0  -7  12 2776.15 149.688   1
   0  -7  13 9216.13 269.110  -2
   0  -7  13 9216.13 269.110   1
   0  -7  14 1372.91 204.701  -2
   0  -7  14 1372.91 204.701   1
   0  -7  15 5137.57 556.553  -2
   0  -7  15 5137.57 556.553   1
   0  -7  16 47.9112 194.578  -2
   0  -7  16 47.9112 194.578   1
   0  -7  17 795.389 282.864  -2
   0  -7  17 795.389 282.864   1
   0  -7  18 338.995 213.936  -2
   0  -7  18 338.995 213.936   1
   0  -7  19 1144.19 286.755  -2
   0  -7  19 1144.19 286.755   1
   0  -6 -15 124.284 190.444  -2
   0  -6 -15 124.284 190.444   1
   0  -6 -14 1312.33 269.570  -2
   0  -6 -14 1312.33 269.570   1
   0  -6 -13 21.3977 210.035  -2
   0  -6 -13 21.3977 210.035   1
   0  -6 -12 2703.46 249.537  -2
   0  -6 -12 2703.46 249.537   1
   0  -6 -11 278.619 180.122  -2
   0  -6 -11 278.619 180.122   1
   0  -6 -10 11385.9 276.027  -2
   0  -6 -10 11385.9 276.027   1
   0  -6  -9 651.692 110.960  -2
   0  -6  -9 651.692 110.960   1
   0  -6  -8 13313.9 314.833  -2
   0  -6  -8 13313.9 314.833   1
   0  -6  -7 440.159 94.6377  -2
   0  -6  -7 440.159 94.6377   1
   0  -6  -6 2724.11 139.945  -2
   0  -6  -6 2724.11 139.945   1
   0  -6  -5 774.349 107.520  -2
   0  -6  -5 774.349 107.520   1
   0  -6  -4 26508.3 259.241  -2
   0  -6  -4 26508.3 259.241   1
   0  -6  -3 947.282 74.0600  -2
   0  -6  -3 947.282 74.0600   1
   0  -6  -2 62523.9 392.991  -2
   0  -6  -2 62523.9 392.991   1
   0  -6  -1 885.448 88.1953  -2
   0  -6  -1 885.448 88.1953   1
   0  -6   0 4504.19 153.994  -2
   0  -6   0 4504.19 153.994   1
   0  -6   1 279.826 70.6823  -2
   0  -6   1 279.826 70.6823   1
   0  -6   2 54655.2 587.855  -2
   0  -6   2 54655.2 587.855   1
   0  -6   3 1130.91 147.862  -2
   0  -6   3 1130.91 147.862   1
   0  -6   4 14345.9 266.014  -2
   0  -6   4 14345.9 266.014   1
   0  -6   5 2302.62 143.047  -2
   0  -6   5 2302.62 143.047   1
   0  -6   6 43203.8 376.554  -2
   0  -6   6 43203.8 376.554   1
   0  -6   7 4093.12 211.538  -2
   0  -6   7 4093.12 211.538   1
   0  -6   8 27181.2 358.596  -2
   0  -6   8 27181.2 358.596   1
   0  -6   9 2030.19 127.404  -2
   0  -6   9 2030.19 127.404   1
   0  -6  10 18355.6 296.672  -2
   0  -6  10 18355.6 296.672   1
   0  -6  11 766.047 123.128  -2
   0  -6  11 766.047 123.128   1
   0  -6  12 6533.99 184.783  -2
   0  -6  12 6533.99 184.783   1
   0  -6  13 1269.43 183.685  -2
   0  -6  13 1269.43 183.685   1
   0  -6  14 7809.05 298.584  -2
   0  -6  14 7809.05 298.584   1
   0  -6  15 1748.81 208.606  -2
   0  -6  15 1748.81 208.606   1
   0  -6  16 6595.06 305.039  -2
   0  -6  16 6595.06 305.039   1
   0  -6  17 84.0053 392.194  -2
   0  -6  17 84.0053 392.194   1
   0  -6  18 849.560 431.115  -2
   0  -6  18 849.560 431.115   1
   0  -6  19-111.228 417.347  -2
   0  -6  19-111.228 417.347   1
   0  -5 -16 272.218 426.195  -2
   0  -5 -16 272.218 426.195   1
   0  -5 -15 3528.34 445.467  -2
   0  -5 -15 3528.34 445.467   1
   0  -5 -14 167.967 162.728  -2
   0  -5 -14 167.967 162.728   1
   0  -5 -13 3071.71 232.946  -2
   0  -5 -13 3071.71 232.946   1
   0  -5 -12 62.7498 196.523  -2
   0  -5 -12 62.7498 196.523   1
   0  -5 -11 4694.14 194.100  -2
   0  -5 -11 4694.14 194.100   1
   0  -5 -10 108.324 96.7415  -2
   0  -5 -10 108.324 96.7415   1
   0  -5  -9 15583.2 394.537  -2
   0  -5  -9 15583.2 394.537   1
   0  -5  -8 178.748 103.136  -2
   0  -5  -8 178.748 103.136   1
   0  -5  -7 12257.0 238.241  -2
   0  -5  -7 12257.0 238.241   1
   0  -5  -6 515.331 88.2738  -2
   0  -5  -6 515.331 88.2738   1
   0  -5  -5 11177.6 174.121  -2
   0  -5  -5 11177.6 174.121   1
   0  -5  -4 347.343 77.4034  -2
   0  -5  -4 347.343 77.4034   1
   0  -5  -3 27669.8 269.109  -2
   0  -5  -3 27669.8 269.109   1
   0  -5  -2 2017.23 87.4210  -2
   0  -5  -2 2017.23 87.4210   1
   0  -5  -1 31997.4 232.767  -2
   0  -5  -1 31997.4 232.767   1
   0  -5   0 721.923 84.8188  -2
   0  -5   0 721.923 84.8188   1
   0  -5   1 14270.6 172.183  -2
   0  -5   1 14270.6 172.183   1
   0  -5   2 3677.35 136.382  -2
   0  -5   2 3677.35 136.382   1
   0  -5   3 22273.7 288.130  -2
   0  -5   3 22273.7 288.130   1
   0  -5   4 312.427 95.5738  -2
   0  -5   4 312.427 95.5738   1
   0  -5   5 41974.1 487.809  -2
   0  -5   5 41974.1 487.809   1
   0  -5   6 2199.43 164.311  -2
   0  -5   6 2199.43 164.311   1
   0  -5   7 15890.9 266.627  -2
   0  -5   7 15890.9 266.627   1
   0  -5   8 3683.28 161.634  -2
   0  -5   8 3683.28 161.634   1
   0  -5   9 12386.6 202.719  -2
   0  -5   9 12386.6 202.719   1
   0  -5  10 1234.95 140.368  -2
   0  -5  10 1234.95 140.368   1
   0  -5  11 3427.69 154.467  -2
   0  -5  11 3427.69 154.467   1
   0  -5  12 269.188 146.703  -2
   0  -5  12 269.188 146.703   1
   0  -5  13 5731.51 270.839  -2
   0  -5  13 5731.51 270.839   1
   0  -5  14 4552.22 687.726  -2
   0  -5  14 4552.22 687.726   1
   0  -5  15 6004.17 374.494  -2
   0  -5  15 6004.17 374.494   1
   0  -5  16 1610.65 613.837  -2
   0  -5  16 1610.65 613.837   1
   0  -5  17 2540.93 326.207  -2
   0  -5  17 2540.93 326.207   1
   0  -5  18 603.889 522.888  -2
   0  -5  18 603.889 522.888   1
   0  -5  19 1161.85 579.980  -2
   0  -5  19 1161.85 579.980   1
   0  -4 -17 701.599 467.034  -2
   0  -4 -17 701.599 467.034   1
   0  -4 -16 2053.74 513.694  -2
   0  -4 -16 2053.74 513.694   1
   0  -4 -15 285.595 271.848  -2
   0  -4 -15 285.595 271.848   1
   0  -4 -14 3983.69 250.717  -2
   0  -4 -14 3983.69 250.717   1
   0  -4 -13 101.668 182.164  -2
   0  -4 -13 101.668 182.164   1
   0  -4 -12 2682.94 205.530  -2
   0  -4 -12 2682.94 205.530   1
   0  -4 -11 216.806 163.418  -2
   0  -4 -11 216.806 163.418   1
   0  -4 -10 6225.08 193.784  -2
   0  -4 -10 6225.08 193.784   1
   0  -4  -9 676.708 139.689  -2
   0  -4  -9 676.708 139.689   1
   0  -4  -8 37509.6 388.022  -2
   0  -4  -8 37509.6 388.022   1
   0  -4  -7 1424.68 96.5140  -2
   0  -4  -7 1424.68 96.5140   1
   0  -4  -6 5458.05 172.793  -2
   0  -4  -6 5458.05 172.793   1
   0  -4  -5 122.605 57.5084  -2
   0  -4  -5 122.605 57.5084   1
   0  -4  -4 18736.3 198.855  -2
   0  -4  -4 18736.3 198.855   1
   0  -4  -3 182.736 61.8341  -2
   0  -4  -3 182.736 61.8341   1
   0  -4  -2 44216.9 286.396  -2
   0  -4  -2 44216.9 286.396   1
   0  -4  -1 2176.32 72.3853  -2
   0  -4  -1 2176.32 72.3853   1
   0  -4   0 122712. 475.343  -2
   0  -4   0 122712. 475.343   1
   0  -4   1 1859.48 79.8692  -2
   0  -4   1 1859.48 79.8692   1
   0  -4   2 37293.1 261.651  -2
   0  -4   2 37293.1 261.651   1
   0  -4   3 3305.65 125.391  -2
   0  -4   3 3305.65 125.391   1
   0  -4   4 38854.8 313.558  -2
   0  -4   4 38854.8 313.558   1
   0  -4   5 786.981 108.838  -2
   0  -4   5 786.981 108.838   1
   0  -4   6 58388.9 594.052  -2
   0  -4   6 58388.9 594.052   1
   0  -4   7 2762.36 204.600  -2
   0  -4   7 2762.36 204.600   1
   0  -4   8 31058.1 332.268  -2
   0  -4   8 31058.1 332.268   1
   0  -4   9 2906.52 129.225  -2
   0  -4   9 2906.52 129.225   1
   0  -4  10 7585.56 179.610  -2
   0  -4  10 7585.56 179.610   1
   0  -4  11 80.9977 82.1781  -2
   0  -4  11 80.9977 82.1781   1
   0  -4  12 9134.41 286.280  -2
   0  -4  12 9134.41 286.280   1
   0  -4  13 500.781 140.403  -2
   0  -4  13 500.781 140.403   1
   0  -4  14 7082.74 366.812  -2
   0  -4  14 7082.74 366.812   1
   0  -4  15 590.312 226.913  -2
   0  -4  15 590.312 226.913   1
   0  -4  16 7979.27 404.323  -2
   0  -4  16 7979.27 404.323   1
   0  -4  17 354.253 472.304  -2
   0  -4  17 354.253 472.304   1
   0  -4  18 570.123 281.024  -2
   0  -4  18 570.123 281.024   1
   0  -4  19 67.3500 286.671  -2
   0  -4  19 67.3500 286.671   1
   0  -3 -17 2491.55 536.042  -2
   0  -3 -17 2491.55 536.042   1
   0  -3 -16 214.188 389.591  -2
   0  -3 -16 214.188 389.591   1
   0  -3 -15 2632.70 481.125  -2
   0  -3 -15 2632.70 481.125   1
   0  -3 -14 381.011 216.437  -2
   0  -3 -14 381.011 216.437   1
   0  -3 -13 3136.39 288.429  -2
   0  -3 -13 3136.39 288.429   1
   0  -3 -12 178.094 191.127  -2
   0  -3 -12 178.094 191.127   1
   0  -3 -11 7738.49 259.942  -2
   0  -3 -11 7738.49 259.942   1
   0  -3 -10 1123.80 104.079  -2
   0  -3 -10 1123.80 104.079   1
   0  -3  -9 14473.7 218.740  -2
   0  -3  -9 14473.7 218.740   1
   0  -3  -8 248.811 80.4900  -2
   0  -3  -8 248.811 80.4900   1
   0  -3  -7 36548.1 298.901  -2
   0  -3  -7 36548.1 298.901   1
   0  -3  -6 34.7993 73.8079  -2
   0  -3  -6 34.7993 73.8079   1
   0  -3  -5 11122.8 177.843  -2
   0  -3  -5 11122.8 177.843   1
   0  -3  -4 1927.33 95.2973  -2
   0  -3  -4 1927.33 95.2973   1
   0  -3  -3 22826.3 187.355  -2
   0  -3  -3 22826.3 187.355   1
   0  -3  -2 790.813 76.8773  -2
   0  -3  -2 790.813 76.8773   1
   0  -3  -1 165151. 443.697  -2
   0  -3  -1 165151. 443.697   1
   0  -3   0 804.469 51.2745  -2
   0  -3   0 804.469 51.2745   1
   0  -3   1 11672.8 130.834  -2
   0  -3   1 11672.8 130.834   1
   0  -3   2 251.370 52.8753  -2
   0  -3   2 251.370 52.8753   1
   0  -3   3 58719.8 257.847  -2
   0  -3   3 58719.8 257.847   1
   0  -3   4 4173.76 108.398  -2
   0  -3   4 4173.76 108.398   1
   0  -3   5 9264.93 229.419  -2
   0  -3   5 9264.93 229.419   1
   0  -3   6 171.348 121.978  -2
   0  -3   6 171.348 121.978   1
   0  -3   7 26567.0 448.575  -2
   0  -3   7 26567.0 448.575   1
   0  -3   8 1638.76 137.650  -2
   0  -3   8 1638.76 137.650   1
   0  -3   9 22299.7 356.310  -2
   0  -3   9 22299.7 356.310   1
   0  -3  10 1551.14 183.640  -2
   0  -3  10 1551.14 183.640   1
   0  -3  11 1461.21 132.633  -2
   0  -3  11 1461.21 132.633   1
   0  -3  12 1865.24 133.612  -2
   0  -3  12 1865.24 133.612   1
   0  -3  13 6058.75 157.376  -2
   0  -3  13 6058.75 157.376   1
   0  -3  14 845.772 423.881  -2
   0  -3  14 845.772 423.881   1
   0  -3  15 6556.59 348.499  -2
   0  -3  15 6556.59 348.499   1
   0  -3  16 4506.83 322.447  -2
   0  -3  16 4506.83 322.447   1
   0  -3  17 2403.19 279.471  -2
   0  -3  17 2403.19 279.471   1
   0  -3  18 92.4162 244.051  -2
   0  -3  18 92.4162 244.051   1
   0  -3  19 265.923 235.066  -2
   0  -3  19 265.923 235.066   1
   0  -2 -18 2210.77 531.084  -2
   0  -2 -18 2210.77 531.084   1
   0  -2 -17 47.5938 416.186  -2
   0  -2 -17 47.5938 416.186   1
   0  -2 -16 2773.40 503.021  -2
   0  -2 -16 2773.40 503.021   1
   0  -2 -15 194.470 210.030  -2
   0  -2 -15 194.470 210.030   1
   0  -2 -14 3461.01 462.737  -2
   0  -2 -14 3461.01 462.737   1
   0  -2 -13 859.548 209.110  -2
   0  -2 -13 859.548 209.110   1
   0  -2 -12 2018.72 162.044  -2
   0  -2 -12 2018.72 162.044   1
   0  -2 -11 503.314 199.922  -2
   0  -2 -11 503.314 199.922   1
   0  -2 -10 9440.94 229.084  -2
   0  -2 -10 9440.94 229.084   1
   0  -2  -9 334.117 109.687  -2
   0  -2  -9 334.117 109.687   1
   0  -2  -8 34655.1 338.517  -2
   0  -2  -8 34655.1 338.517   1
   0  -2  -7 718.696 89.8855  -2
   0  -2  -7 718.696 89.8855   1
   0  -2  -6 11974.5 181.359  -2
   0  -2  -6 11974.5 181.359   1
   0  -2  -5 4277.44 111.401  -2
   0  -2  -5 4277.44 111.401   1
   0  -2  -4 22947.9 228.163  -2
   0  -2  -4 22947.9 228.163   1
   0  -2  -3 575.752 67.3917  -2
   0  -2  -3 575.752 67.3917   1
   0  -2  -2 169445. 550.348  -2
   0  -2  -2 169445. 550.348   1
   0  -2  -1 664.204 39.8330  -2
   0  -2  -1 664.204 39.8330   1
   0  -2   2 29685.2 186.267  -2
   0  -2   2 29685.2 186.267   1
   0  -2   3 136.553 61.3351  -2
   0  -2   3 136.553 61.3351   1
   0  -2   4 53389.2 320.829  -2
   0  -2   4 53389.2 320.829   1
   0  -2   5 4666.98 119.940  -2
   0  -2   5 4666.98 119.940   1
   0  -2   6 83573.7 663.250  -2
   0  -2   6 83573.7 663.250   1
   0  -2   7 1.35853 56.2010  -2
   0  -2   7 1.35853 56.2010   1
   0  -2   8 15740.1 258.604  -2
   0  -2   8 15740.1 258.604   1
   0  -2   9 1044.42 98.5162  -2
   0  -2   9 1044.42 98.5162   1
   0  -2  10 31135.4 331.685  -2
   0  -2  10 31135.4 331.685   1
   0  -2  11 1232.92 165.543  -2
   0  -2  11 1232.92 165.543   1
   0  -2  12 1768.53 396.688  -2
   0  -2  12 1768.53 396.688   1
   0  -2  13 303.211 330.712  -2
   0  -2  13 303.211 330.712   1
   0  -2  14 6269.74 316.224  -2
   0  -2  14 6269.74 316.224   1
   0  -2  15 325.767 185.770  -2
   0  -2  15 325.767 185.770   1
   0  -2  16 4967.96 658.178  -2
   0  -2  16 4967.96 658.178   1
   0  -2  17 471.866 227.497  -2
   0  -2  17 471.866 227.497   1
   0  -2  18 1023.85 244.661  -2
   0  -2  18 1023.85 244.661   1
   0  -2  19-42.8918 489.419  -2
   0  -2  19-42.8918 489.419   1
   0  -1 -18 428.082 417.904  -2
   0  -1 -18 428.082 417.904   1
   0  -1 -17 4037.57 561.464  -2
   0  -1 -17 4037.57 561.464   1
   0  -1 -16 398.196 391.323  -2
   0  -1 -16 398.196 391.323   1
   0  -1 -15 3752.21 309.337  -2
   0  -1 -15 3752.21 309.337   1
   0  -1 -14 567.487 325.495  -2
   0  -1 -14 567.487 325.495   1
   0  -1 -13 4438.85 472.070  -2
   0  -1 -13 4438.85 472.070   1
   0  -1 -12 525.321 303.568  -2
   0  -1 -12 525.321 303.568   1
   0  -1 -11 6924.37 312.316  -2
   0  -1 -11 6924.37 312.316   1
   0  -1 -10 537.952 125.325  -2
   0  -1 -10 537.952 125.325   1
   0  -1  -9 7231.50 222.113  -2
   0  -1  -9 7231.50 222.113   1
   0  -1  -8 487.074 119.668  -2
   0  -1  -8 487.074 119.668   1
   0  -1  -7 44475.3 406.984  -2
   0  -1  -7 44475.3 406.984   1
   0  -1  -6 2275.24 178.829  -2
   0  -1  -6 2275.24 178.829   1
   0  -1  -5 4797.33 133.679  -2
   0  -1  -5 4797.33 133.679   1
   0  -1  -4 691.128 44.8902  -2
   0  -1  -4 691.128 44.8902   1
   0  -1  -3 6792.45 117.123  -2
   0  -1  -3 6792.45 117.123   1
   0  -1  -2 4.61650 73.0308  -2
   0  -1  -2 4.61650 73.0308   1
   0  -1   3 23808.0 187.895  -2
   0  -1   3 23808.0 187.895   1
   0  -1   4 266.550 62.8777  -2
   0  -1   4 266.550 62.8777   1
   0  -1   5 20912.1 176.598  -2
   0  -1   5 20912.1 176.598   1
   0  -1   6 2806.21 101.141  -2
   0  -1   6 2806.21 101.141   1
   0  -1   7 27054.4 391.748  -2
   0  -1   7 27054.4 391.748   1
   0  -1   8 72.4639 195.196  -2
   0  -1   8 72.4639 195.196   1
   0  -1   9 10207.5 591.995  -2
   0  -1   9 10207.5 591.995   1
   0  -1  10 2241.20 173.006  -2
   0  -1  10 2241.20 173.006   1
   0  -1  11 9106.04 311.676  -2
   0  -1  11 9106.04 311.676   1
   0  -1  12 1383.92 179.117  -2
   0  -1  12 1383.92 179.117   1
   0  -1  13 6427.28 294.861  -2
   0  -1  13 6427.28 294.861   1
   0  -1  14 265.831 154.045  -2
   0  -1  14 265.831 154.045   1
   0  -1  15 6317.02 329.442  -2
   0  -1  15 6317.02 329.442   1
   0  -1  16 3307.41 270.566  -2
   0  -1  16 3307.41 270.566   1
   0  -1  17 5493.32 698.499  -2
   0  -1  17 5493.32 698.499   1
   0  -1  18 312.009 443.818  -2
   0  -1  18 312.009 443.818   1
   0   0 -19 359.031 449.358  -2
   0   0 -19 359.031 449.358   1
   0   0 -18 1839.60 493.671  -2
   0   0 -18 1839.60 493.671   1
   0   0 -17 581.204 392.595  -2
   0   0 -17 581.204 392.595   1
   0   0 -16 4022.37 535.127  -2
   0   0 -16 4022.37 535.127   1
   0   0 -15 932.178 368.702  -2
   0   0 -15 932.178 368.702   1
   0   0 -14 2740.07 277.171  -2
   0   0 -14 2740.07 277.171   1
   0   0 -13 583.150 210.670  -2
   0   0 -13 583.150 210.670   1
   0   0 -12 2865.82 375.644  -2
   0   0 -12 2865.82 375.644   1
   0   0 -11 1211.40 200.777  -2
   0   0 -11 1211.40 200.777   1
   0   0 -10 8345.97 300.537  -2
   0   0 -10 8345.97 300.537   1
   0   0  -9 124.841 212.189  -2
   0   0  -9 124.841 212.189   1
   0   0  -8 23919.2 413.656  -2
   0   0  -8 23919.2 413.656   1
   0   0  -7 1228.15 143.019  -2
   0   0  -7 1228.15 143.019   1
   0   0  -6 77334.2 860.614  -2
   0   0  -6 77334.2 860.614   1
   0   0  -5 262.838 125.085  -2
   0   0  -5 262.838 125.085   1
   0   0  -4 29891.2 262.583  -2
   0   0  -4 29891.2 262.583   1
   0   0  -3 485.652 112.826  -2
   0   0  -3 485.652 112.826   1
   0   0   3 533.372 60.4895  -2
   0   0   3 533.372 60.4895   1
   0   0   4 40429.7 288.550  -2
   0   0   4 40429.7 288.550   1
   0   0   5 206.409 52.1089  -2
   0   0   5 206.409 52.1089   1
   0   0   6 64219.3 377.019  -2
   0   0   6 64219.3 377.019   1
   0   0   7 1963.85 135.909  -2
   0   0   7 1963.85 135.909   1
   0   0   8 31331.2 438.966  -2
   0   0   8 31331.2 438.966   1
   0   0   9 100.993 113.076  -2
   0   0   9 100.993 113.076   1
   0   0  10 11508.3 316.766  -2
   0   0  10 11508.3 316.766   1
   0   0  11 1627.30 174.591  -2
   0   0  11 1627.30 174.591   1
   0   0  12 3605.92 224.924  -2
   0   0  12 3605.92 224.924   1
   0   0  13 948.835 177.797  -2
   0   0  13 948.835 177.797   1
   0   0  14 3865.66 539.849  -2
   0   0  14 3865.66 539.849   1
   0   0  15 1175.74 436.629  -2
   0   0  15 1175.74 436.629   1
   0   0  16 5315.83 320.053  -2
   0   0  16 5315.83 320.053   1
   0   0  17 768.517 436.133  -2
   0   0  17 768.517 436.133   1
   0   0  18 2028.33 538.080  -2
   0   0  18 2028.33 538.080   1
   0   1 -19 269.053 290.698  -2
   0   1 -19 269.053 290.698   1
   0   1 -18 473.870 422.225  -2
   0   1 -18 473.870 422.225   1
   0   1 -17 5789.06 608.245  -2
   0   1 -17 5789.06 608.245   1
   0   1 -16 2774.85 297.774  -2
   0   1 -16 2774.85 297.774   1
   0   1 -15 5889.53 554.880  -2
   0   1 -15 5889.53 554.880   1
   0   1 -14 346.156 312.422  -2
   0   1 -14 346.156 312.422   1
   0   1 -13 4917.09 296.583  -2
   0   1 -13 4917.09 296.583   1
   0   1 -12 1170.68 197.678  -2
   0   1 -12 1170.68 197.678   1
   0   1 -11 8484.80 507.972  -2
   0   1 -11 8484.80 507.972   1
   0   1 -10 1468.62 179.368  -2
   0   1 -10 1468.62 179.368   1
   0   1  -9 9553.23 287.907  -2
   0   1  -9 9553.23 287.907   1
   0   1  -8 12.3008 119.832  -2
   0   1  -8 12.3008 119.832   1
   0   1  -7 23613.4 595.321  -2
   0   1  -7 23613.4 595.321   1
   0   1  -6 4149.65 141.462  -2
   0   1  -6 4149.65 141.462   1
   0   1  -5 24846.2 191.800  -2
   0   1  -5 24846.2 191.800   1
   0   1  -4 209.734 75.4490  -2
   0   1  -4 209.734 75.4490   1
   0   1  -3 21710.9 200.381  -2
   0   1  -3 21710.9 200.381   1
   0   1   2 53.5548 71.8332  -2
   0   1   2 53.5548 71.8332   1
   0   1   3 7028.23 133.595  -2
   0   1   3 7028.23 133.595   1
   0   1   4 660.340 77.4431  -2
   0   1   4 660.340 77.4431   1
   0   1   5 4908.24 421.063  -2
   0   1   5 4908.24 421.063   1
   0   1   6 2404.74 180.812  -2
   0   1   6 2404.74 180.812   1
   0   1   7 46471.1 1033.34  -2
   0   1   7 46471.1 1033.34   1
   0   1   8 447.750 222.778  -2
   0   1   8 447.750 222.778   1
   0   1   9 8240.95 261.692  -2
   0   1   9 8240.95 261.692   1
   0   1  10 578.689 276.103  -2
   0   1  10 578.689 276.103   1
   0   1  11 8865.38 306.363  -2
   0   1  11 8865.38 306.363   1
   0   1  12 679.598 161.271  -2
   0   1  12 679.598 161.271   1
   0   1  13 4813.60 263.115  -2
   0   1  13 4813.60 263.115   1
   0   1  14 544.195 368.932  -2
   0   1  14 544.195 368.932   1
   0   1  15 5040.59 293.023  -2
   0   1  15 5040.59 293.023   1
   0   1  16 837.027 215.625  -2
   0   1  16 837.027 215.625   1
   0   1  17 4603.03 637.623  -2
   0   1  17 4603.03 637.623   1
   0   2 -19-12.1811 427.542  -2
   0   2 -19-12.1811 427.542   1
   0   2 -18 449.522 404.798  -2
   0   2 -18 449.522 404.798   1
   0   2 -17 412.668 251.960  -2
   0   2 -17 412.668 251.960   1
   0   2 -16 6220.08 582.320  -2
   0   2 -16 6220.08 582.320   1
   0   2 -15 395.143 330.195  -2
   0   2 -15 395.143 330.195   1
   0   2 -14 5931.16 523.569  -2
   0   2 -14 5931.16 523.569   1
   0   2 -13 463.703 303.677  -2
   0   2 -13 463.703 303.677   1
   0   2 -12 1717.71 322.058  -2
   0   2 -12 1717.71 322.058   1
   0   2 -11 1148.11 145.811  -2
   0   2 -11 1148.11 145.811   1
   0   2 -10 28776.8 380.146  -2
   0   2 -10 28776.8 380.146   1
   0   2  -9 854.103 109.018  -2
   0   2  -9 854.103 109.018   1
   0   2  -8 13515.9 239.693  -2
   0   2  -8 13515.9 239.693   1
   0   2  -7 45.1046 74.7594  -2
   0   2  -7 45.1046 74.7594   1
   0   2  -6 70642.7 629.791  -2
   0   2  -6 70642.7 629.791   1
   0   2  -5 4290.04 110.598  -2
   0   2  -5 4290.04 110.598   1
   0   2  -4 49765.6 356.654  -2
   0   2  -4 49765.6 356.654   1
   0   2  -3 247.286 70.3672  -2
   0   2  -3 247.286 70.3672   1
   0   2  -2 31249.4 210.588  -2
   0   2  -2 31249.4 210.588   1
   0   2   0 39315.9 613.099  -2
   0   2   0 39315.9 613.099   1
   0   2   1 597.660 36.4265  -2
   0   2   1 597.660 36.4265   1
   0   2   2 156576. 376.286  -2
   0   2   2 156576. 376.286   1
   0   2   3 535.647 57.1703  -2
   0   2   3 535.647 57.1703   1
   0   2   4 22888.6 225.972  -2
   0   2   4 22888.6 225.972   1
   0   2   5 4136.74 177.209  -2
   0   2   5 4136.74 177.209   1
   0   2   6 11698.4 235.215  -2
   0   2   6 11698.4 235.215   1
   0   2   7 715.578 114.925  -2
   0   2   7 715.578 114.925   1
   0   2   8 32028.8 468.001  -2
   0   2   8 32028.8 468.001   1
   0   2  10 9837.68 619.522  -2
   0   2  10 9837.68 619.522   1
   0   2  11 410.758 282.242  -2
   0   2  11 410.758 282.242   1
   0   2  12 2525.28 207.057  -2
   0   2  12 2525.28 207.057   1
   0   2  13 1251.09 378.764  -2
   0   2  13 1251.09 378.764   1
   0   2  14 4249.99 274.043  -2
   0   2  14 4249.99 274.043   1
   0   2  15 339.486 185.656  -2
   0   2  15 339.486 185.656   1
   0   2  16 3729.28 276.284  -2
   0   2  16 3729.28 276.284   1
   0   3 -19 896.949 448.966  -2
   0   3 -19 896.949 448.966   1
   0   3 -18 182.609 399.833  -2
   0   3 -18 182.609 399.833   1
   0   3 -17 2881.33 475.581  -2
   0   3 -17 2881.33 475.581   1
   0   3 -16 3655.37 306.979  -2
   0   3 -16 3655.37 306.979   1
   0   3 -15 6367.19 356.147  -2
   0   3 -15 6367.19 356.147   1
   0   3 -14 625.719 164.861  -2
   0   3 -14 625.719 164.861   1
   0   3 -13 7456.53 322.825  -2
   0   3 -13 7456.53 322.825   1
   0   3 -12 1500.71 147.935  -2
   0   3 -12 1500.71 147.935   1
   0   3 -11 1254.77 124.487  -2
   0   3 -11 1254.77 124.487   1
   0   3 -10 1491.86 159.383  -2
   0   3 -10 1491.86 159.383   1
   0   3  -9 20447.9 323.225  -2
   0   3  -9 20447.9 323.225   1
   0   3  -8 1547.76 154.861  -2
   0   3  -8 1547.76 154.861   1
   0   3  -7 21497.1 406.707  -2
   0   3  -7 21497.1 406.707   1
   0   3  -6 459.955 160.897  -2
   0   3  -6 459.955 160.897   1
   0   3  -5 8305.76 149.804  -2
   0   3  -5 8305.76 149.804   1
   0   3  -4 3773.52 102.333  -2
   0   3  -4 3773.52 102.333   1
   0   3  -3 53209.6 344.060  -2
   0   3  -3 53209.6 344.060   1
   0   3  -2 351.805 87.2372  -2
   0   3  -2 351.805 87.2372   1
   0   3  -1 12904.3 233.252  -2
   0   3  -1 12904.3 233.252   1
   0   3   0 749.474 74.9696  -2
   0   3   0 749.474 74.9696   1
   0   3   1 139895. 508.238  -2
   0   3   1 139895. 508.238   1
   0   3   2 770.585 51.4293  -2
   0   3   2 770.585 51.4293   1
   0   3   3 19698.3 357.551  -2
   0   3   3 19698.3 357.551   1
   0   3   4 1849.70 76.0657  -2
   0   3   4 1849.70 76.0657   1
   0   3   5 11189.0 247.385  -2
   0   3   5 11189.0 247.385   1
   0   3   6 45.8693 64.7447  -2
   0   3   6 45.8693 64.7447   1
   0   3   7 35050.0 450.669  -2
   0   3   7 35050.0 450.669   1
   0   3   8 206.714 105.746  -2
   0   3   8 206.714 105.746   1
   0   3   9 13360.2 397.298  -2
   0   3   9 13360.2 397.298   1
   0   3  10 1065.62 142.100  -2
   0   3  10 1065.62 142.100   1
   0   3  12 238.329 300.553  -2
   0   3  12 238.329 300.553   1
   0   3  13 2852.41 471.972  -2
   0   3  13 2852.41 471.972   1
   0   3  14 161.171 171.193  -2
   0   3  14 161.171 171.193   1
   0   3  15 3227.91 274.177  -2
   0   3  15 3227.91 274.177   1
   0   3  16 196.206 202.117  -2
   0   3  16 196.206 202.117   1
   0   4 -19-115.728 388.798  -2
   0   4 -19-115.728 388.798   1
   0   4 -18 747.600 433.198  -2
   0   4 -18 747.600 433.198   1
   0   4 -17 119.146 190.032  -2
   0   4 -17 119.146 190.032   1
   0   4 -16 5714.49 336.924  -2
   0   4 -16 5714.49 336.924   1
   0   4 -15 889.383 342.989  -2
   0   4 -15 889.383 342.989   1
   0   4 -14 6906.75 526.038  -2
   0   4 -14 6906.75 526.038   1
   0   4 -13 904.238 183.349  -2
   0   4 -13 904.238 183.349   1
   0   4 -12 9379.44 523.378  -2
   0   4 -12 9379.44 523.378   1
   0   4 -11 185.387 138.962  -2
   0   4 -11 185.387 138.962   1
   0   4 -10 8392.41 269.958  -2
   0   4 -10 8392.41 269.958   1
   0   4  -9 2807.31 280.809  -2
   0   4  -9 2807.31 280.809   1
   0   4  -8 33865.7 710.537  -2
   0   4  -8 33865.7 710.537   1
   0   4  -7 2286.79 149.167  -2
   0   4  -7 2286.79 149.167   1
   0   4  -6 53668.3 726.889  -2
   0   4  -6 53668.3 726.889   1
   0   4  -5 859.890 140.714  -2
   0   4  -5 859.890 140.714   1
   0   4  -4 34420.8 257.517  -2
   0   4  -4 34420.8 257.517   1
   0   4  -3 4085.02 96.7149  -2
   0   4  -3 4085.02 96.7149   1
   0   4  -2 30596.9 307.784  -2
   0   4  -2 30596.9 307.784   1
   0   4  -1 2041.11 124.522  -2
   0   4  -1 2041.11 124.522   1
   0   4   0 108563. 542.246  -2
   0   4   0 108563. 542.246   1
   0   4   1 1957.58 105.858  -2
   0   4   1 1957.58 105.858   1
   0   4   2 42119.9 446.292  -2
   0   4   2 42119.9 446.292   1
   0   4   3 103.028 64.0342  -2
   0   4   3 103.028 64.0342   1
   0   4   4 16625.4 477.764  -2
   0   4   4 16625.4 477.764   1
   0   4   5 92.9109 104.781  -2
   0   4   5 92.9109 104.781   1
   0   4   6 5718.35 216.302  -2
   0   4   6 5718.35 216.302   1
   0   4   7 1549.16 150.252  -2
   0   4   7 1549.16 150.252   1
   0   4   8 32785.5 674.839  -2
   0   4   8 32785.5 674.839   1
   0   4   9 793.574 219.081  -2
   0   4   9 793.574 219.081   1
   0   4  13-55.5784 341.850  -2
   0   4  13-55.5784 341.850   1
   0   4  14 4173.52 273.783  -2
   0   4  14 4173.52 273.783   1
   0   4  15 78.9151 191.709  -2
   0   4  15 78.9151 191.709   1
   0   5 -19 758.945 430.941  -2
   0   5 -19 758.945 430.941   1
   0   5 -18 590.940 389.006  -2
   0   5 -18 590.940 389.006   1
   0   5 -17 2197.93 437.503  -2
   0   5 -17 2197.93 437.503   1
   0   5 -16 1232.46 248.724  -2
   0   5 -16 1232.46 248.724   1
   0   5 -15 5441.51 510.233  -2
   0   5 -15 5441.51 510.233   1
   0   5 -14 4157.66 270.188  -2
   0   5 -14 4157.66 270.188   1
   0   5 -13 6526.50 292.728  -2
   0   5 -13 6526.50 292.728   1
   0   5 -12 353.947 255.743  -2
   0   5 -12 353.947 255.743   1
   0   5 -11 3571.21 343.501  -2
   0   5 -11 3571.21 343.501   1
   0   5 -10 1024.78 234.387  -2
   0   5 -10 1024.78 234.387   1
   0   5  -9 13502.1 489.829  -2
   0   5  -9 13502.1 489.829   1
   0   5  -8 3385.80 263.366  -2
   0   5  -8 3385.80 263.366   1
   0   5  -7 14239.1 419.355  -2
   0   5  -7 14239.1 419.355   1
   0   5  -6 1853.32 176.892  -2
   0   5  -6 1853.32 176.892   1
   0   5  -5 38417.5 516.075  -2
   0   5  -5 38417.5 516.075   1
   0   5  -4 283.976 60.7310  -2
   0   5  -4 283.976 60.7310   1
   0   5  -3 20814.0 344.774  -2
   0   5  -3 20814.0 344.774   1
   0   5  -2 3289.47 181.024  -2
   0   5  -2 3289.47 181.024   1
   0   5  -1 15254.5 320.433  -2
   0   5  -1 15254.5 320.433   1
   0   5   2 2036.99 324.932  -2
   0   5   2 2036.99 324.932   1
   0   5   3 25929.4 908.842  -2
   0   5   3 25929.4 908.842   1
   0   5   4 346.361 143.019  -2
   0   5   4 346.361 143.019   1
   0   5   5 10277.4 667.951  -2
   0   5   5 10277.4 667.951   1
   0   5   6 492.024 162.730  -2
   0   5   6 492.024 162.730   1
   0   5   7 12159.5 817.087  -2
   0   5   7 12159.5 817.087   1
   0   5   8 66.4475 187.398  -2
   0   5   8 66.4475 187.398   1
   0   5   9 13988.3 481.510  -2
   0   5   9 13988.3 481.510   1
   0   5  10 218.344 230.960  -2
   0   5  10 218.344 230.960   1
   0   5  14 110.469 200.172  -2
   0   5  14 110.469 200.172   1
   0   6 -19 149.404 402.143  -2
   0   6 -19 149.404 402.143   1
   0   6 -18 750.947 386.508  -2
   0   6 -18 750.947 386.508   1
   0   6 -17 276.245 239.207  -2
   0   6 -17 276.245 239.207   1
   0   6 -16 6504.47 560.139  -2
   0   6 -16 6504.47 560.139   1
   0   6 -15 1118.01 355.576  -2
   0   6 -15 1118.01 355.576   1
   0   6 -14 8456.07 361.829  -2
   0   6 -14 8456.07 361.829   1
   0   6 -13 1452.37 316.156  -2
   0   6 -13 1452.37 316.156   1
   0   6 -12 6671.32 191.000  -2
   0   6 -12 6671.32 191.000   1
   0   6 -11 496.369 141.068  -2
   0   6 -11 496.369 141.068   1
   0   6 -10 19762.4 351.372  -2
   0   6 -10 19762.4 351.372   1
   0   6  -9 2555.59 258.671  -2
   0   6  -9 2555.59 258.671   1
   0   6  -8 25477.7 586.506  -2
   0   6  -8 25477.7 586.506   1
   0   6  -7 3503.36 229.722  -2
   0   6  -7 3503.36 229.722   1
   0   6  -6 43860.6 603.123  -2
   0   6  -6 43860.6 603.123   1
   0   6  -5 2392.83 146.578  -2
   0   6  -5 2392.83 146.578   1
   0   6  -4 17124.1 222.329  -2
   0   6  -4 17124.1 222.329   1
   0   6  -3 1529.81 83.2190  -2
   0   6  -3 1529.81 83.2190   1
   0   6   2 59440.3 1396.75  -2
   0   6   2 59440.3 1396.75   1
   0   6   3 646.232 158.443  -2
   0   6   3 646.232 158.443   1
   0   6   4 22850.8 965.969  -2
   0   6   4 22850.8 965.969   1
   0   6   5 569.259 334.209  -2
   0   6   5 569.259 334.209   1
   0   6   6 3734.03 557.485  -2
   0   6   6 3734.03 557.485   1
   0   6   7 739.784 421.154  -2
   0   6   7 739.784 421.154   1
   0   6   8 12374.0 447.874  -2
   0   6   8 12374.0 447.874   1
   0   6   9 1025.77 459.886  -2
   0   6   9 1025.77 459.886   1
   0   6  10 10151.3 934.354  -2
   0   6  10 10151.3 934.354   1
   0   6  11 24.3616 255.049  -2
   0   6  11 24.3616 255.049   1
   0   7 -19 857.710 416.496  -2
   0   7 -19 857.710 416.496   1
   0   7 -18 628.548 385.549  -2
   0   7 -18 628.548 385.549   1
   0   7 -17 960.074 249.535  -2
   0   7 -17 960.074 249.535   1
   0   7 -16 548.540 223.533  -2
   0   7 -16 548.540 223.533   1
   0   7 -15 5917.08 502.383  -2
   0   7 -15 5917.08 502.383   1
   0   7 -14 2338.01 209.618  -2
   0   7 -14 2338.01 209.618   1
   0   7 -13 8526.59 250.883  -2
   0   7 -13 8526.59 250.883   1
   0   7 -12 2400.45 205.516  -2
   0   7 -12 2400.45 205.516   1
   0   7 -11 2637.52 199.345  -2
   0   7 -11 2637.52 199.345   1
   0   7 -10 817.740 148.225  -2
   0   7 -10 817.740 148.225   1
   0   7  -9 9210.86 347.721  -2
   0   7  -9 9210.86 347.721   1
   0   7  -8 3541.50 246.637  -2
   0   7  -8 3541.50 246.637   1
   0   7  -7 11385.3 342.037  -2
   0   7  -7 11385.3 342.037   1
   0   7  -6 1702.23 142.639  -2
   0   7  -6 1702.23 142.639   1
   0   7  -5 17438.1 566.735  -2
   0   7  -5 17438.1 566.735   1
   0   7  -4 1372.37 137.453  -2
   0   7  -4 1372.37 137.453   1
   0   7  -3 11723.6 232.221  -2
   0   7  -3 11723.6 232.221   1
   0   7   2 1908.53 191.787  -2
   0   7   2 1908.53 191.787   1
   0   7   3 12480.9 756.521  -2
   0   7   3 12480.9 756.521   1
   0   7   4 1346.40 177.902  -2
   0   7   4 1346.40 177.902   1
   0   7   5 20748.9 364.552  -2
   0   7   5 20748.9 364.552   1
   0   7   6 1244.67 432.512  -2
   0   7   6 1244.67 432.512   1
   0   7   7 7212.26 373.747  -2
   0   7   7 7212.26 373.747   1
   0   7   8 314.532 441.531  -2
   0   7   8 314.532 441.531   1
   0   7   9 11276.6 467.449  -2
   0   7   9 11276.6 467.449   1
   0   7  10 120.679 242.760  -2
   0   7  10 120.679 242.760   1
   0   7  11 5756.47 407.384  -2
   0   7  11 5756.47 407.384   1
   0   7  12 180.160 575.507  -2
   0   7  12 180.160 575.507   1
   0   8 -19 173.697 394.807  -2
   0   8 -19 173.697 394.807   1
   0   8 -18 304.112 239.917  -2
   0   8 -18 304.112 239.917   1
   0   8 -17 598.931 353.487  -2
   0   8 -17 598.931 353.487   1
   0   8 -16 2383.11 396.087  -2
   0   8 -16 2383.11 396.087   1
   0   8 -15 2084.60 377.078  -2
   0   8 -15 2084.60 377.078   1
   0   8 -14 6380.01 305.226  -2
   0   8 -14 6380.01 305.226   1
   0   8 -13 2403.14 220.279  -2
   0   8 -13 2403.14 220.279   1
   0   8 -12 13508.2 282.279  -2
   0   8 -12 13508.2 282.279   1
   0   8 -11 1764.28 235.117  -2
   0   8 -11 1764.28 235.117   1
   0   8 -10 1308.20 161.739  -2
   0   8 -10 1308.20 161.739   1
   0   8  -9 1612.26 189.943  -2
   0   8  -9 1612.26 189.943   1
   0   8  -8 25553.9 485.363  -2
   0   8  -8 25553.9 485.363   1
   0   8  -7 4495.10 172.945  -2
   0   8  -7 4495.10 172.945   1
   0   8  -6 30394.2 503.929  -2
   0   8  -6 30394.2 503.929   1
   0   8  -5 2181.38 143.602  -2
   0   8  -5 2181.38 143.602   1
   0   8  -4 17624.9 272.436  -2
   0   8  -4 17624.9 272.436   1
   0   8  -3 425.268 197.581  -2
   0   8  -3 425.268 197.581   1
   0   8  -1 943.599 367.095  -2
   0   8  -1 943.599 367.095   1
   0   8   0 16671.5 445.392  -2
   0   8   0 16671.5 445.392   1
   0   8   1 603.899 178.337  -2
   0   8   1 603.899 178.337   1
   0   8   2 15776.9 638.669  -2
   0   8   2 15776.9 638.669   1
   0   8   3 462.197 129.712  -2
   0   8   3 462.197 129.712   1
   0   8   4 6740.39 300.845  -2
   0   8   4 6740.39 300.845   1
   0   8   5 647.645 190.230  -2
   0   8   5 647.645 190.230   1
   0   8   6 4961.23 290.035  -2
   0   8   6 4961.23 290.035   1
   0   8   7 478.964 153.494  -2
   0   8   7 478.964 153.494   1
   0   8   8 3009.18 298.509  -2
   0   8   8 3009.18 298.509   1
   0   8   9 687.460 256.059  -2
   0   8   9 687.460 256.059   1
   0   8  10 3710.03 359.815  -2
   0   8  10 3710.03 359.815   1
   0   8  11 312.804 564.810  -2
   0   8  11 312.804 564.810   1
   0   8  12 3235.60 386.165  -2
   0   8  12 3235.60 386.165   1
   0   9 -18 601.919 568.726  -2
   0   9 -18 601.919 568.726   1
   0   9 -17 486.267 547.153  -2
   0   9 -17 486.267 547.153   1
   0   9 -16 373.370 482.743  -2
   0   9 -16 373.370 482.743   1
   0   9 -15 3474.15 635.664  -2
   0   9 -15 3474.15 635.664   1
   0   9 -14 1142.16 208.833  -2
   0   9 -14 1142.16 208.833   1
   0   9 -13 3967.78 256.237  -2
   0   9 -13 3967.78 256.237   1
   0   9 -12 990.994 178.118  -2
   0   9 -12 990.994 178.118   1
   0   9 -11 4787.32 242.305  -2
   0   9 -11 4787.32 242.305   1
   0   9 -10 1100.28 156.944  -2
   0   9 -10 1100.28 156.944   1
   0   9  -9 8142.56 305.390  -2
   0   9  -9 8142.56 305.390   1
   0   9  -8 1253.52 139.632  -2
   0   9  -8 1253.52 139.632   1
   0   9  -7 8836.10 317.123  -2
   0   9  -7 8836.10 317.123   1
   0   9  -6 5077.95 303.458  -2
   0   9  -6 5077.95 303.458   1
   0   9  -5 22516.9 334.857  -2
   0   9  -5 22516.9 334.857   1
   0   9  -4 2626.56 194.268  -2
   0   9  -4 2626.56 194.268   1
   0   9  -3 5560.05 327.230  -2
   0   9  -3 5560.05 327.230   1
   0   9  -2 868.503 207.424  -2
   0   9  -2 868.503 207.424   1
   0   9  -1 11142.1 401.129  -2
   0   9  -1 11142.1 401.129   1
   0   9   0 2350.62 239.282  -2
   0   9   0 2350.62 239.282   1
   0   9   1 12341.8 301.107  -2
   0   9   1 12341.8 301.107   1
   0   9   2 1829.23 214.704  -2
   0   9   2 1829.23 214.704   1
   0   9   3 19850.2 481.071  -2
   0   9   3 19850.2 481.071   1
   0   9   4 952.052 309.864  -2
   0   9   4 952.052 309.864   1
   0   9   5 4228.10 445.043  -2
   0   9   5 4228.10 445.043   1
   0   9   6 170.798 194.174  -2
   0   9   6 170.798 194.174   1
   0   9   7 3903.31 232.046  -2
   0   9   7 3903.31 232.046   1
   0   9   8 645.192 221.782  -2
   0   9   8 645.192 221.782   1
   0   9   9 8243.68 324.358  -2
   0   9   9 8243.68 324.358   1
   0   9  10 398.219 306.493  -2
   0   9  10 398.219 306.493   1
   0   9  11 2389.22 361.450  -2
   0   9  11 2389.22 361.450   1
   0   9  12 361.191 616.458  -2
   0   9  12 361.191 616.458   1
   0  10 -18 721.747 437.956  -2
   0  10 -18 721.747 437.956   1
   0  10 -17 20.8460 535.984  -2
   0  10 -17 20.8460 535.984   1
   0  10 -16 133.305 519.097  -2
   0  10 -16 133.305 519.097   1
   0  10 -15 1087.11 268.321  -2
   0  10 -15 1087.11 268.321   1
   0  10 -14 3936.00 318.493  -2
   0  10 -14 3936.00 318.493   1
   0  10 -13 2136.20 266.977  -2
   0  10 -13 2136.20 266.977   1
   0  10 -12 5953.55 340.670  -2
   0  10 -12 5953.55 340.670   1
   0  10 -11 2292.92 249.359  -2
   0  10 -11 2292.92 249.359   1
   0  10 -10 7461.03 487.005  -2
   0  10 -10 7461.03 487.005   1
   0  10  -9 1165.54 202.103  -2
   0  10  -9 1165.54 202.103   1
   0  10  -8 7488.28 419.889  -2
   0  10  -8 7488.28 419.889   1
   0  10  -7 1133.95 218.401  -2
   0  10  -7 1133.95 218.401   1
   0  10  -6 8832.37 285.908  -2
   0  10  -6 8832.37 285.908   1
   0  10  -5 2124.82 127.797  -2
   0  10  -5 2124.82 127.797   1
   0  10  -4 18004.9 556.180  -2
   0  10  -4 18004.9 556.180   1
   0  10  -3 2234.19 256.321  -2
   0  10  -3 2234.19 256.321   1
   0  10  -2 13387.3 467.010  -2
   0  10  -2 13387.3 467.010   1
   0  10  -1 524.646 422.702  -2
   0  10  -1 524.646 422.702   1
   0  10   0 5864.41 343.564  -2
   0  10   0 5864.41 343.564   1
   0  10   1 772.048 293.966  -2
   0  10   1 772.048 293.966   1
   0  10   2 16364.3 360.732  -2
   0  10   2 16364.3 360.732   1
   0  10   3 1786.40 362.662  -2
   0  10   3 1786.40 362.662   1
   0  10   4 9407.56 383.384  -2
   0  10   4 9407.56 383.384   1
   0  10   5 959.230 337.343  -2
   0  10   5 959.230 337.343   1
   0  10   6 4002.42 310.740  -2
   0  10   6 4002.42 310.740   1
   0  10   7 286.471 179.885  -2
   0  10   7 286.471 179.885   1
   0  10   8 3121.85 245.935  -2
   0  10   8 3121.85 245.935   1
   0  10   9 80.8984 259.131  -2
   0  10   9 80.8984 259.131   1
   0  10  10 4063.76 283.984  -2
   0  10  10 4063.76 283.984   1
   0  10  11 666.044 268.279  -2
   0  10  11 666.044 268.279   1
   0  11 -17 1716.81 626.329  -2
   0  11 -17 1716.81 626.329   1
   0  11 -16 224.748 251.485  -2
   0  11 -16 224.748 251.485   1
   0  11 -15 2758.18 310.124  -2
   0  11 -15 2758.18 310.124   1
   0  11 -14 1232.96 268.226  -2
   0  11 -14 1232.96 268.226   1
   0  11 -13 4954.92 342.317  -2
   0  11 -13 4954.92 342.317   1
   0  11 -12 2610.86 272.646  -2
   0  11 -12 2610.86 272.646   1
   0  11 -11 7006.17 352.126  -2
   0  11 -11 7006.17 352.126   1
   0  11 -10 1119.85 287.893  -2
   0  11 -10 1119.85 287.893   1
   0  11  -9 1212.26 556.494  -2
   0  11  -9 1212.26 556.494   1
   0  11  -8 2278.90 304.485  -2
   0  11  -8 2278.90 304.485   1
   0  11  -7 9035.84 964.661  -2
   0  11  -7 9035.84 964.661   1
   0  11  -6 2666.28 326.495  -2
   0  11  -6 2666.28 326.495   1
   0  11  -5 8798.74 914.101  -2
   0  11  -5 8798.74 914.101   1
   0  11  -4 4168.13 692.700  -2
   0  11  -4 4168.13 692.700   1
   0  11  -3 7273.92 403.964  -2
   0  11  -3 7273.92 403.964   1
   0  11  -2 2917.73 304.604  -2
   0  11  -2 2917.73 304.604   1
   0  11  -1 10303.1 448.303  -2
   0  11  -1 10303.1 448.303   1
   0  11   0 1203.26 254.367  -2
   0  11   0 1203.26 254.367   1
   0  11   1 5819.82 329.313  -2
   0  11   1 5819.82 329.313   1
   0  11   2 1035.15 226.592  -2
   0  11   2 1035.15 226.592   1
   0  11   3 7052.22 359.105  -2
   0  11   3 7052.22 359.105   1
   0  11   4 737.703 220.338  -2
   0  11   4 737.703 220.338   1
   0  11   5 7095.14 297.449  -2
   0  11   5 7095.14 297.449   1
   0  11   6 126.809 233.226  -2
   0  11   6 126.809 233.226   1
   0  11   7 1570.17 279.149  -2
   0  11   7 1570.17 279.149   1
   0  11   8 353.689 253.997  -2
   0  11   8 353.689 253.997   1
   0  11   9 3390.12 347.898  -2
   0  11   9 3390.12 347.898   1
   0  12 -16 449.670 323.667  -2
   0  12 -16 449.670 323.667   1
   0  12 -15 960.540 323.837  -2
   0  12 -15 960.540 323.837   1
   0  12 -14 2536.58 737.097  -2
   0  12 -14 2536.58 737.097   1
   0  12 -13 2563.86 367.449  -2
   0  12 -13 2563.86 367.449   1
   0  12 -12 5700.43 863.795  -2
   0  12 -12 5700.43 863.795   1
   0  12 -11 2023.34 336.692  -2
   0  12 -11 2023.34 336.692   1
   0  12 -10 1298.65 318.734  -2
   0  12 -10 1298.65 318.734   1
   0  12  -9 1023.23 285.617  -2
   0  12  -9 1023.23 285.617   1
   0  12  -8 6262.49 438.003  -2
   0  12  -8 6262.49 438.003   1
   0  12  -7 1670.24 322.020  -2
   0  12  -7 1670.24 322.020   1
   0  12  -6 10266.4 513.899  -2
   0  12  -6 10266.4 513.899   1
   0  12  -5 1176.32 282.407  -2
   0  12  -5 1176.32 282.407   1
   0  12  -4 11205.7 506.386  -2
   0  12  -4 11205.7 506.386   1
   0  12  -3 1277.33 279.521  -2
   0  12  -3 1277.33 279.521   1
   0  12  -2 3680.01 338.854  -2
   0  12  -2 3680.01 338.854   1
   0  12  -1 968.928 265.675  -2
   0  12  -1 968.928 265.675   1
   0  12   0 9373.69 411.295  -2
   0  12   0 9373.69 411.295   1
   0  12   1 556.307 220.350  -2
   0  12   1 556.307 220.350   1
   0  12   2 5431.85 350.736  -2
   0  12   2 5431.85 350.736   1
   0  12   3 763.288 241.379  -2
   0  12   3 763.288 241.379   1
   0  12   4 3703.34 257.829  -2
   0  12   4 3703.34 257.829   1
   0  12   5 349.851 191.828  -2
   0  12   5 349.851 191.828   1
   0  12   6 3136.02 330.158  -2
   0  12   6 3136.02 330.158   1
   0  12   7 438.620 261.678  -2
   0  12   7 438.620 261.678   1
   0  12   8 1201.56 293.863  -2
   0  12   8 1201.56 293.863   1
   0  13 -14 1446.07 336.499  -2
   0  13 -14 1446.07 336.499   1
   0  13 -13 2501.37 740.445  -2
   0  13 -13 2501.37 740.445   1
   0  13 -12 2152.28 362.939  -2
   0  13 -12 2152.28 362.939   1
   0  13 -11 2835.05 391.963  -2
   0  13 -11 2835.05 391.963   1
   0  13 -10 2234.64 364.384  -2
   0  13 -10 2234.64 364.384   1
   0  13  -9 4413.70 427.758  -2
   0  13  -9 4413.70 427.758   1
   0  13  -8 1990.44 351.222  -2
   0  13  -8 1990.44 351.222   1
   0  13  -7 4464.85 841.428  -2
   0  13  -7 4464.85 841.428   1
   0  13  -6 2508.16 361.662  -2
   0  13  -6 2508.16 361.662   1
   0  13  -5 5113.06 421.065  -2
   0  13  -5 5113.06 421.065   1
   0  13  -4 2360.23 690.766  -2
   0  13  -4 2360.23 690.766   1
   0  13  -3 7177.45 456.864  -2
   0  13  -3 7177.45 456.864   1
   0  13  -2 213.141 276.871  -2
   0  13  -2 213.141 276.871   1
   0  13  -1 4281.15 396.470  -2
   0  13  -1 4281.15 396.470   1
   0  13   0 2006.89 294.695  -2
   0  13   0 2006.89 294.695   1
   0  13   1 3408.78 330.697  -2
   0  13   1 3408.78 330.697   1
   0  13   2 434.679 195.354  -2
   0  13   2 434.679 195.354   1
   0  13   3 8683.02 349.597  -2
   0  13   3 8683.02 349.597   1
   0  13   4 798.031 218.990  -2
   0  13   4 798.031 218.990   1
   0  13   5 3754.06 281.095  -2
   0  13   5 3754.06 281.095   1
   0  13   6 138.374 452.271  -2
   0  13   6 138.374 452.271   1
   0  14 -13 1681.65 370.593  -2
   0  14 -13 1681.65 370.593   1
   0  14 -12 3317.79 790.031  -2
   0  14 -12 3317.79 790.031   1
   0  14 -11 1656.08 355.792  -2
   0  14 -11 1656.08 355.792   1
   0  14 -10 6721.55 499.881  -2
   0  14 -10 6721.55 499.881   1
   0  14  -9 1017.81 336.031  -2
   0  14  -9 1017.81 336.031   1
   0  14  -8 2582.03 784.849  -2
   0  14  -8 2582.03 784.849   1
   0  14  -7 879.672 349.074  -2
   0  14  -7 879.672 349.074   1
   0  14  -6 2550.72 404.108  -2
   0  14  -6 2550.72 404.108   1
   0  14  -5 2016.53 748.750  -2
   0  14  -5 2016.53 748.750   1
   0  14  -4 10056.8 557.494  -2
   0  14  -4 10056.8 557.494   1
   0  14  -3 2569.43 378.207  -2
   0  14  -3 2569.43 378.207   1
   0  14  -2 2569.87 374.651  -2
   0  14  -2 2569.87 374.651   1
   0  14  -1 191.691 214.833  -2
   0  14  -1 191.691 214.833   1
   0  14   0 2426.17 325.403  -2
   0  14   0 2426.17 325.403   1
   0  14   1 809.931 274.491  -2
   0  14   1 809.931 274.491   1
   0  14   2 2673.65 519.956  -2
   0  14   2 2673.65 519.956   1
   0  14   3 614.647 434.114  -2
   0  14   3 614.647 434.114   1
   0  15 -10 1116.25 370.146  -2
   0  15 -10 1116.25 370.146   1
   0  15  -9 582.224 712.230  -2
   0  15  -9 582.224 712.230   1
   0  15  -8 243.402 735.095  -2
   0  15  -8 243.402 735.095   1
   0  15  -7 5227.56 512.260  -2
   0  15  -7 5227.56 512.260   1
   0  15  -6 1968.27 418.111  -2
   0  15  -6 1968.27 418.111   1
   0  15  -5 3714.38 469.137  -2
   0  15  -5 3714.38 469.137   1
   0  15  -4 895.978 378.567  -2
   0  15  -4 895.978 378.567   1
   0  15  -3 4616.30 461.861  -2
   0  15  -3 4616.30 461.861   1
   0  15  -2 1386.55 314.001  -2
   0  15  -2 1386.55 314.001   1
   0  15  -1 4813.76 402.288  -2
   0  15  -1 4813.76 402.288   1
  -1 -14  -1 2250.10 733.783  -2
   1 -15  -2 2250.10 733.783   1
  -1 -14   0 1582.84 379.468  -2
   1 -15  -1 1582.84 379.468   1
  -1 -14   1 763.121 350.482  -2
   1 -15   0 763.121 350.482   1
  -1 -14   2 2457.34 411.572  -2
   1 -15   1 2457.34 411.572   1
  -1 -14   3 1393.40 363.331  -2
   1 -15   2 1393.40 363.331   1
  -1 -14   4 2867.65 420.371  -2
   1 -15   3 2867.65 420.371   1
  -1 -14   5 1568.19 387.743  -2
   1 -15   4 1568.19 387.743   1
  -1 -14   6 1599.62 388.551  -2
   1 -15   5 1599.62 388.551   1
  -1 -14   7 1471.92 386.179  -2
   1 -15   6 1471.92 386.179   1
  -1 -14   8 1690.12 406.296  -2
   1 -15   7 1690.12 406.296   1
  -1 -14   9 1022.42 368.630  -2
   1 -15   8 1022.42 368.630   1
  -1 -14  10 1356.13 390.575  -2
   1 -15   9 1356.13 390.575   1
  -1 -14  11 1208.53 399.927  -2
   1 -15  10 1208.53 399.927   1
  -1 -14  12 1228.66 681.022  -2
   1 -15  11 1228.66 681.022   1
  -1 -13  -4 2170.90 400.292  -2
   1 -14  -5 2170.90 400.292   1
  -1 -13  -3 2080.95 374.725  -2
   1 -14  -4 2080.95 374.725   1
  -1 -13  -2 2021.85 371.491  -2
   1 -14  -3 2021.85 371.491   1
  -1 -13  -1 1115.49 332.707  -2
   1 -14  -2 1115.49 332.707   1
  -1 -13   0 1561.52 340.654  -2
   1 -14  -1 1561.52 340.654   1
  -1 -13   1 1044.34 329.090  -2
   1 -14   0 1044.34 329.090   1
  -1 -13   2 2977.45 393.429  -2
   1 -14   1 2977.45 393.429   1
  -1 -13   3 1584.81 346.564  -2
   1 -14   2 1584.81 346.564   1
  -1 -13   4 1348.29 343.284  -2
   1 -14   3 1348.29 343.284   1
  -1 -13   5 1260.01 351.791  -2
   1 -14   4 1260.01 351.791   1
  -1 -13   6 2991.34 398.031  -2
   1 -14   5 2991.34 398.031   1
  -1 -13   7 1455.76 358.973  -2
   1 -14   6 1455.76 358.973   1
  -1 -13   8 1479.30 362.923  -2
   1 -14   7 1479.30 362.923   1
  -1 -13   9 279.088 248.782  -2
   1 -14   8 279.088 248.782   1
  -1 -13  10 1512.78 371.590  -2
   1 -14   9 1512.78 371.590   1
  -1 -13  11 1272.12 371.204  -2
   1 -14  10 1272.12 371.204   1
  -1 -13  12 1867.33 404.121  -2
   1 -14  11 1867.33 404.121   1
  -1 -13  13 1681.12 398.330  -2
   1 -14  12 1681.12 398.330   1
  -1 -13  14 1740.30 414.307  -2
   1 -14  13 1740.30 414.307   1
  -1 -12  -6 1883.17 446.849  -2
   1 -13  -7 1883.17 446.849   1
  -1 -12  -5 1063.60 338.682  -2
   1 -13  -6 1063.60 338.682   1
  -1 -12  -4 3469.42 396.019  -2
   1 -13  -5 3469.42 396.019   1
  -1 -12  -3 1912.28 353.270  -2
   1 -13  -4 1912.28 353.270   1
  -1 -12  -2 5661.12 449.852  -2
   1 -13  -3 5661.12 449.852   1
  -1 -12  -1 1801.44 335.187  -2
   1 -13  -2 1801.44 335.187   1
  -1 -12   0 3854.84 389.148  -2
   1 -13  -1 3854.84 389.148   1
  -1 -12   1 1827.04 327.360  -2
   1 -13   0 1827.04 327.360   1
  -1 -12   2 2188.44 337.578  -2
   1 -13   1 2188.44 337.578   1
  -1 -12   3 2563.14 351.779  -2
   1 -13   2 2563.14 351.779   1
  -1 -12   4 6559.68 461.717  -2
   1 -13   3 6559.68 461.717   1
  -1 -12   5 2493.65 354.841  -2
   1 -13   4 2493.65 354.841   1
  -1 -12   6 4292.45 423.639  -2
   1 -13   5 4292.45 423.639   1
  -1 -12   7 1192.45 322.265  -2
   1 -13   6 1192.45 322.265   1
  -1 -12   8 1663.09 340.311  -2
   1 -13   7 1663.09 340.311   1
  -1 -12   9 2142.47 366.376  -2
   1 -13   8 2142.47 366.376   1
  -1 -12  10 764.566 316.181  -2
   1 -13   9 764.566 316.181   1
  -1 -12  11 1330.07 340.902  -2
   1 -13  10 1330.07 340.902   1
  -1 -12  12 3150.99 423.151  -2
   1 -13  11 3150.99 423.151   1
  -1 -12  13 2768.86 416.082  -2
   1 -13  12 2768.86 416.082   1
  -1 -12  14 1214.32 367.813  -2
   1 -13  13 1214.32 367.813   1
  -1 -12  15 587.322 344.157  -2
   1 -13  14 587.322 344.157   1
  -1 -11  -8 2361.16 689.142  -2
   1 -12  -9 2361.16 689.142   1
  -1 -11  -7 2133.47 432.840  -2
   1 -12  -8 2133.47 432.840   1
  -1 -11  -6 1995.34 341.787  -2
   1 -12  -7 1995.34 341.787   1
  -1 -11  -5 2350.89 340.846  -2
   1 -12  -6 2350.89 340.846   1
  -1 -11  -4 2985.66 364.183  -2
   1 -12  -5 2985.66 364.183   1
  -1 -11  -3 3180.89 360.574  -2
   1 -12  -4 3180.89 360.574   1
  -1 -11  -2 3148.46 342.683  -2
   1 -12  -3 3148.46 342.683   1
  -1 -11  -1 2229.06 313.209  -2
   1 -12  -2 2229.06 313.209   1
  -1 -11   0 2521.56 319.720  -2
   1 -12  -1 2521.56 319.720   1
  -1 -11   1 1053.55 276.354  -2
   1 -12   0 1053.55 276.354   1
  -1 -11   2 1485.50 294.102  -2
   1 -12   1 1485.50 294.102   1
  -1 -11   3 1264.67 289.757  -2
   1 -12   2 1264.67 289.757   1
  -1 -11   4 4774.81 391.247  -2
   1 -12   3 4774.81 391.247   1
  -1 -11   5 2970.69 350.608  -2
   1 -12   4 2970.69 350.608   1
  -1 -11   6 3957.31 383.471  -2
   1 -12   5 3957.31 383.471   1
  -1 -11   7 1696.15 317.412  -2
   1 -12   6 1696.15 317.412   1
  -1 -11   8 908.561 298.386  -2
   1 -12   7 908.561 298.386   1
  -1 -11   9 1536.13 324.755  -2
   1 -12   8 1536.13 324.755   1
  -1 -11  10 3884.09 394.999  -2
   1 -12   9 3884.09 394.999   1
  -1 -11  11 1963.24 341.099  -2
   1 -12  10 1963.24 341.099   1
  -1 -11  12 1925.62 351.424  -2
   1 -12  11 1925.62 351.424   1
  -1 -11  13 2411.91 371.621  -2
   1 -12  12 2411.91 371.621   1
  -1 -11  14 2497.91 397.763  -2
   1 -12  13 2497.91 397.763   1
  -1 -11  15 2384.04 390.348  -2
   1 -12  14 2384.04 390.348   1
  -1 -11  16 1152.64 432.639  -2
   1 -12  15 1152.64 432.639   1
  -1 -11  17 256.487 613.701  -2
   1 -12  16 256.487 613.701   1
  -1 -10  -9 1745.32 434.750  -2
   1 -11 -10 1745.32 434.750   1
  -1 -10  -8 3523.97 477.344  -2
   1 -11  -9 3523.97 477.344   1
  -1 -10  -7 2064.57 286.133  -2
   1 -11  -8 2064.57 286.133   1
  -1 -10  -6 2369.30 271.770  -2
   1 -11  -7 2369.30 271.770   1
  -1 -10  -5 1916.54 246.235  -2
   1 -11  -6 1916.54 246.235   1
  -1 -10  -4 4653.44 298.445  -2
   1 -11  -5 4653.44 298.445   1
  -1 -10  -3 3194.46 260.747  -2
   1 -11  -4 3194.46 260.747   1
  -1 -10  -2 8856.79 347.593  -2
   1 -11  -3 8856.79 347.593   1
  -1 -10  -1 4640.90 266.722  -2
   1 -11  -2 4640.90 266.722   1
  -1 -10   0 3376.97 322.186  -2
   1 -11  -1 3376.97 322.186   1
  -1 -10   1 1104.69 257.744  -2
   1 -11   0 1104.69 257.744   1
  -1 -10   2 4147.31 343.443  -2
   1 -11   1 4147.31 343.443   1
  -1 -10   3 4175.38 345.527  -2
   1 -11   2 4175.38 345.527   1
  -1 -10   4 4691.72 364.001  -2
   1 -11   3 4691.72 364.001   1
  -1 -10   5 2753.25 318.082  -2
   1 -11   4 2753.25 318.082   1
  -1 -10   6 5932.40 409.428  -2
   1 -11   5 5932.40 409.428   1
  -1 -10   7 6452.23 420.344  -2
   1 -11   6 6452.23 420.344   1
  -1 -10   8 5512.48 410.924  -2
   1 -11   7 5512.48 410.924   1
  -1 -10   9 1480.03 296.058  -2
   1 -11   8 1480.03 296.058   1
  -1 -10  10 2780.70 353.311  -2
   1 -11   9 2780.70 353.311   1
  -1 -10  11 3720.00 384.193  -2
   1 -11  10 3720.00 384.193   1
  -1 -10  12 2367.20 348.078  -2
   1 -11  11 2367.20 348.078   1
  -1 -10  13 2882.67 434.080  -2
   1 -11  12 2882.67 434.080   1
  -1 -10  14 3452.06 479.999  -2
   1 -11  13 3452.06 479.999   1
  -1 -10  15 1757.18 422.614  -2
   1 -11  14 1757.18 422.614   1
  -1 -10  16 1870.21 420.367  -2
   1 -11  15 1870.21 420.367   1
  -1 -10  17 1198.82 696.330  -2
   1 -11  16 1198.82 696.330   1
  -1 -10  18 848.155 631.491  -2
   1 -11  17 848.155 631.491   1
  -1  -9 -11 2189.56 481.288  -2
   1 -10 -12 2189.56 481.288   1
  -1  -9 -10 3512.23 501.485  -2
   1 -10 -11 3512.23 501.485   1
  -1  -9  -9 2547.98 443.389  -2
   1 -10 -10 2547.98 443.389   1
  -1  -9  -8 2705.37 296.918  -2
   1 -10  -9 2705.37 296.918   1
  -1  -9  -7 2144.90 262.988  -2
   1 -10  -8 2144.90 262.988   1
  -1  -9  -6 4255.17 299.355  -2
   1 -10  -7 4255.17 299.355   1
  -1  -9  -5 4087.33 281.878  -2
   1 -10  -6 4087.33 281.878   1
  -1  -9  -4 3855.15 268.366  -2
   1 -10  -5 3855.15 268.366   1
  -1  -9  -3 3284.31 246.016  -2
   1 -10  -4 3284.31 246.016   1
  -1  -9  -2 3759.50 246.389  -2
   1 -10  -3 3759.50 246.389   1
  -1  -9  -1 5526.28 270.432  -2
   1 -10  -2 5526.28 270.432   1
  -1  -9   0 8935.14 307.495  -2
   1 -10  -1 8935.14 307.495   1
  -1  -9   1 3365.86 207.074  -2
   1 -10   0 3365.86 207.074   1
  -1  -9   2 2852.50 287.037  -2
   1 -10   1 2852.50 287.037   1
  -1  -9   3 1976.02 264.396  -2
   1 -10   2 1976.02 264.396   1
  -1  -9   4 3814.97 321.568  -2
   1 -10   3 3814.97 321.568   1
  -1  -9   5 6513.67 393.587  -2
   1 -10   4 6513.67 393.587   1
  -1  -9   6 4598.53 353.813  -2
   1 -10   5 4598.53 353.813   1
  -1  -9   7 2772.25 319.131  -2
   1 -10   6 2772.25 319.131   1
  -1  -9   8 3149.79 326.712  -2
   1 -10   7 3149.79 326.712   1
  -1  -9   9 2270.48 309.200  -2
   1 -10   8 2270.48 309.200   1
  -1  -9  10 2213.05 316.077  -2
   1 -10   9 2213.05 316.077   1
  -1  -9  11 1873.75 298.717  -2
   1 -10  10 1873.75 298.717   1
  -1  -9  12 1984.27 382.651  -2
   1 -10  11 1984.27 382.651   1
  -1  -9  13 3679.48 454.457  -2
   1 -10  12 3679.48 454.457   1
  -1  -9  14 4193.07 467.881  -2
   1 -10  13 4193.07 467.881   1
  -1  -9  15 2607.64 427.959  -2
   1 -10  14 2607.64 427.959   1
  -1  -9  16 1409.88 674.985  -2
   1 -10  15 1409.88 674.985   1
  -1  -9  17 993.899 657.728  -2
   1 -10  16 993.899 657.728   1
  -1  -9  18 683.543 660.154  -2
   1 -10  17 683.543 660.154   1
  -1  -8 -12 2498.88 498.016  -2
   1  -9 -13 2498.88 498.016   1
  -1  -8 -11 1652.08 439.514  -2
   1  -9 -12 1652.08 439.514   1
  -1  -8 -10 3409.57 493.764  -2
   1  -9 -11 3409.57 493.764   1
  -1  -8  -9 2783.33 357.847  -2
   1  -9 -10 2783.33 357.847   1
  -1  -8  -8 6835.68 357.715  -2
   1  -9  -9 6835.68 357.715   1
  -1  -8  -7 1694.64 232.052  -2
   1  -9  -8 1694.64 232.052   1
  -1  -8  -6 5321.75 246.853  -2
   1  -9  -7 5321.75 246.853   1
  -1  -8  -5 2724.63 189.803  -2
   1  -9  -6 2724.63 189.803   1
  -1  -8  -4 4016.83 197.614  -2
   1  -9  -5 4016.83 197.614   1
  -1  -8  -3 9225.69 251.248  -2
   1  -9  -4 9225.69 251.248   1
  -1  -8  -2 13113.3 267.611  -2
   1  -9  -3 13113.3 267.611   1
  -1  -8  -1 2388.10 189.870  -2
   1  -9  -2 2388.10 189.870   1
  -1  -8   0 9602.02 300.460  -2
   1  -9  -1 9602.02 300.460   1
  -1  -8   1 2602.62 182.469  -2
   1  -9   0 2602.62 182.469   1
  -1  -8   2 2224.25 270.100  -2
   1  -9   1 2224.25 270.100   1
  -1  -8   3 3299.34 347.237  -2
   1  -9   2 3299.34 347.237   1
  -1  -8   4 6207.31 440.431  -2
   1  -9   3 6207.31 440.431   1
  -1  -8   5 4038.57 325.779  -2
   1  -9   4 4038.57 325.779   1
  -1  -8   6 12158.7 478.858  -2
   1  -9   5 12158.7 478.858   1
  -1  -8   7 6302.77 382.510  -2
   1  -9   6 6302.77 382.510   1
  -1  -8   8 3978.02 327.810  -2
   1  -9   7 3978.02 327.810   1
  -1  -8   9 3003.45 317.203  -2
   1  -9   8 3003.45 317.203   1
  -1  -8  10 3110.11 226.865  -2
   1  -9   9 3110.11 226.865   1
  -1  -8  11 3354.05 266.003  -2
   1  -9  10 3354.05 266.003   1
  -1  -8  12 6451.04 345.559  -2
   1  -9  11 6451.04 345.559   1
  -1  -8  13 2575.59 385.520  -2
   1  -9  12 2575.59 385.520   1
  -1  -8  14 2868.67 415.131  -2
   1  -9  13 2868.67 415.131   1
  -1  -8  15 2037.99 375.510  -2
   1  -9  14 2037.99 375.510   1
  -1  -8  16 3031.51 744.452  -2
   1  -9  15 3031.51 744.452   1
  -1  -8  17 1324.67 641.530  -2
   1  -9  16 1324.67 641.530   1
  -1  -8  18 1548.69 681.784  -2
   1  -9  17 1548.69 681.784   1
  -1  -8  19 706.371 626.576  -2
   1  -9  18 706.371 626.576   1
  -1  -7 -13 1638.08 476.476  -2
   1  -8 -14 1638.08 476.476   1
  -1  -7 -12 2007.31 352.581  -2
   1  -8 -13 2007.31 352.581   1
  -1  -7 -11 4001.53 388.645  -2
   1  -8 -12 4001.53 388.645   1
  -1  -7 -10 3662.26 355.725  -2
   1  -8 -11 3662.26 355.725   1
  -1  -7  -9 4268.17 258.978  -2
   1  -8 -10 4268.17 258.978   1
  -1  -7  -8 3242.09 229.861  -2
   1  -8  -9 3242.09 229.861   1
  -1  -7  -7 3965.41 228.822  -2
   1  -8  -8 3965.41 228.822   1
  -1  -7  -6 4485.87 225.136  -2
   1  -8  -7 4485.87 225.136   1
  -1  -7  -5 2759.36 181.699  -2
   1  -8  -6 2759.36 181.699   1
  -1  -7  -4 4431.83 199.968  -2
   1  -8  -5 4431.83 199.968   1
  -1  -7  -3 4964.43 194.538  -2
   1  -8  -4 4964.43 194.538   1
  -1  -7  -2 9339.67 228.406  -2
   1  -8  -3 9339.67 228.406   1
  -1  -7  -1 10487.0 300.075  -2
   1  -8  -2 10487.0 300.075   1
  -1  -7   0 7346.58 249.522  -2
   1  -8  -1 7346.58 249.522   1
  -1  -7   1 2072.17 170.791  -2
   1  -8   0 2072.17 170.791   1
  -1  -7   2 1371.97 240.194  -2
   1  -8   1 1371.97 240.194   1
  -1  -7   3 2495.97 288.708  -2
   1  -8   2 2495.97 288.708   1
  -1  -7   4 14832.4 545.057  -2
   1  -8   3 14832.4 545.057   1
  -1  -7   5 6532.62 421.402  -2
   1  -8   4 6532.62 421.402   1
  -1  -7   6 5843.38 334.315  -2
   1  -8   5 5843.38 334.315   1
  -1  -7   7 4086.79 302.900  -2
   1  -8   6 4086.79 302.900   1
  -1  -7   8 3367.42 180.758  -2
   1  -8   7 3367.42 180.758   1
  -1  -7   9 2364.29 201.159  -2
   1  -8   8 2364.29 201.159   1
  -1  -7  10 4105.93 268.940  -2
   1  -8   9 4105.93 268.940   1
  -1  -7  11 1557.89 224.609  -2
   1  -8  10 1557.89 224.609   1
  -1  -7  12 3784.20 295.996  -2
   1  -8  11 3784.20 295.996   1
  -1  -7  13 3129.77 289.368  -2
   1  -8  12 3129.77 289.368   1
  -1  -7  14 5443.69 362.652  -2
   1  -8  13 5443.69 362.652   1
  -1  -7  15 2609.23 306.570  -2
   1  -8  14 2609.23 306.570   1
  -1  -7  16 4836.08 505.575  -2
   1  -8  15 4836.08 505.575   1
  -1  -7  17 1020.19 419.488  -2
   1  -8  16 1020.19 419.488   1
  -1  -7  18 2500.88 730.068  -2
   1  -8  17 2500.88 730.068   1
  -1  -7  19 734.935 661.314  -2
   1  -8  18 734.935 661.314   1
  -1  -6 -14 1355.82 371.434  -2
   1  -7 -15 1355.82 371.434   1
  -1  -6 -13 1958.81 362.619  -2
   1  -7 -14 1958.81 362.619   1
  -1  -6 -12 4142.29 405.419  -2
   1  -7 -13 4142.29 405.419   1
  -1  -6 -11 3396.44 364.564  -2
   1  -7 -12 3396.44 364.564   1
  -1  -6 -10 5649.76 349.248  -2
   1  -7 -11 5649.76 349.248   1
  -1  -6  -9 6023.82 325.862  -2
   1  -7 -10 6023.82 325.862   1
  -1  -6  -8 8920.15 363.311  -2
   1  -7  -9 8920.15 363.311   1
  -1  -6  -7 6734.21 303.383  -2
   1  -7  -8 6734.21 303.383   1
  -1  -6  -6 5331.33 260.833  -2
   1  -7  -7 5331.33 260.833   1
  -1  -6  -5 3797.40 215.175  -2
   1  -7  -6 3797.40 215.175   1
  -1  -6  -4 10635.2 291.591  -2
   1  -7  -5 10635.2 291.591   1
  -1  -6  -3 3538.81 172.184  -2
   1  -7  -4 3538.81 172.184   1
  -1  -6  -2 12597.0 266.601  -2
   1  -7  -3 12597.0 266.601   1
  -1  -6  -1 17006.0 276.821  -2
   1  -7  -2 17006.0 276.821   1
  -1  -6   0 15896.0 354.534  -2
   1  -7  -1 15896.0 354.534   1
  -1  -6   1 8800.95 259.305  -2
   1  -7   0 8800.95 259.305   1
  -1  -6   2 12943.9 464.898  -2
   1  -7   1 12943.9 464.898   1
  -1  -6   3 726.102 209.638  -2
   1  -7   2 726.102 209.638   1
  -1  -6   4 4583.09 328.275  -2
   1  -7   3 4583.09 328.275   1
  -1  -6   5 9391.13 449.011  -2
   1  -7   4 9391.13 449.011   1
  -1  -6   6 15578.8 472.037  -2
   1  -7   5 15578.8 472.037   1
  -1  -6   7 12443.0 300.439  -2
   1  -7   6 12443.0 300.439   1
  -1  -6   8 11761.8 333.899  -2
   1  -7   7 11761.8 333.899   1
  -1  -6   9 1888.13 200.143  -2
   1  -7   8 1888.13 200.143   1
  -1  -6  10 2959.93 243.337  -2
   1  -7   9 2959.93 243.337   1
  -1  -6  11 3974.56 358.006  -2
   1  -7  10 3974.56 358.006   1
  -1  -6  12 3012.39 335.269  -2
   1  -7  11 3012.39 335.269   1
  -1  -6  13 2758.11 336.675  -2
   1  -7  12 2758.11 336.675   1
  -1  -6  14 4011.52 378.745  -2
   1  -7  13 4011.52 378.745   1
  -1  -6  15 3335.30 653.015  -2
   1  -7  14 3335.30 653.015   1
  -1  -6  16 3292.05 684.084  -2
   1  -7  15 3292.05 684.084   1
  -1  -6  17 1220.30 576.829  -2
   1  -7  16 1220.30 576.829   1
  -1  -6  18 790.949 575.591  -2
   1  -7  17 790.949 575.591   1
  -1  -6  19 208.397 565.708  -2
   1  -7  18 208.397 565.708   1
   1  -7  19 1440.97 495.151   1
  -1  -5 -15 2658.09 497.775  -2
   1  -6 -16 2658.09 497.775   1
  -1  -5 -14 1062.56 346.566  -2
   1  -6 -15 1062.56 346.566   1
  -1  -5 -13 1641.25 345.831  -2
   1  -6 -14 1641.25 345.831   1
  -1  -5 -12 2424.72 339.323  -2
   1  -6 -13 2424.72 339.323   1
  -1  -5 -11 3796.61 318.838  -2
   1  -6 -12 3796.61 318.838   1
  -1  -5 -10 4184.97 306.072  -2
   1  -6 -11 4184.97 306.072   1
  -1  -5  -9 4887.50 243.630  -2
   1  -6 -10 4887.50 243.630   1
  -1  -5  -8 3967.26 218.184  -2
   1  -6  -9 3967.26 218.184   1
  -1  -5  -7 6481.96 247.057  -2
   1  -6  -8 6481.96 247.057   1
  -1  -5  -6 8755.76 268.722  -2
   1  -6  -7 8755.76 268.722   1
  -1  -5  -5 5727.28 207.495  -2
   1  -6  -6 5727.28 207.495   1
  -1  -5  -4 5810.56 197.809  -2
   1  -6  -5 5810.56 197.809   1
  -1  -5  -3 1464.64 120.112  -2
   1  -6  -4 1464.64 120.112   1
  -1  -5  -2 5653.84 169.500  -2
   1  -6  -3 5653.84 169.500   1
  -1  -5  -1 15954.0 246.043  -2
   1  -6  -2 15954.0 246.043   1
  -1  -5   0 14093.2 282.966  -2
   1  -6  -1 14093.2 282.966   1
  -1  -5   1 8661.38 243.800  -2
   1  -6   0 8661.38 243.800   1
  -1  -5   2 5065.36 298.873  -2
   1  -6   1 5065.36 298.873   1
  -1  -5   3 1143.08 206.218  -2
   1  -6   2 1143.08 206.218   1
  -1  -5   4 4269.65 310.416  -2
   1  -6   3 4269.65 310.416   1
  -1  -5   5 8734.55 326.738  -2
   1  -6   4 8734.55 326.738   1
  -1  -5   6 10148.7 258.015  -2
   1  -6   5 10148.7 258.015   1
  -1  -5   7 11816.0 307.949  -2
   1  -6   6 11816.0 307.949   1
  -1  -5   8 17728.8 581.650  -2
   1  -6   7 17728.8 581.650   1
  -1  -5   9 2454.43 286.933  -2
   1  -6   8 2454.43 286.933   1
  -1  -5  10 1556.25 256.918  -2
   1  -6   9 1556.25 256.918   1
  -1  -5  11 1921.42 275.049  -2
   1  -6  10 1921.42 275.049   1
  -1  -5  12 5265.22 362.220  -2
   1  -6  11 5265.22 362.220   1
  -1  -5  13 9464.97 458.333  -2
   1  -6  12 9464.97 458.333   1
  -1  -5  14 6423.53 385.383  -2
   1  -6  13 6423.53 385.383   1
  -1  -5  15 4584.16 717.435  -2
   1  -6  14 4584.16 717.435   1
  -1  -5  16 3650.62 666.809  -2
   1  -6  15 3650.62 666.809   1
  -1  -5  17 2958.29 688.239  -2
   1  -6  16 2958.29 688.239   1
  -1  -5  18 1870.00 654.420  -2
   1  -6  17 1870.00 654.420   1
  -1  -5  19 938.278 638.742  -2
   1  -6  18 938.278 638.742   1
  -1  -5  20 549.431 582.196  -2
   1  -6  19 549.431 582.196   1
  -1  -4 -16 3072.36 518.496  -2
   1  -5 -17 3072.36 518.496   1
  -1  -4 -15 3777.24 519.436  -2
   1  -5 -16 3777.24 519.436   1
  -1  -4 -14 1916.29 378.994  -2
   1  -5 -15 1916.29 378.994   1
  -1  -4 -13 1248.27 317.986  -2
   1  -5 -14 1248.27 317.986   1
  -1  -4 -12 2607.32 300.383  -2
   1  -5 -13 2607.32 300.383   1
  -1  -4 -11 1837.80 265.361  -2
   1  -5 -12 1837.80 265.361   1
  -1  -4 -10 7414.90 272.620  -2
   1  -5 -11 7414.90 272.620   1
  -1  -4  -9 7209.70 264.933  -2
   1  -5 -10 7209.70 264.933   1
  -1  -4  -8 12197.6 314.411  -2
   1  -5  -9 12197.6 314.411   1
  -1  -4  -7 5045.10 219.317  -2
   1  -5  -8 5045.10 219.317   1
  -1  -4  -6 15415.6 314.552  -2
   1  -5  -7 15415.6 314.552   1
  -1  -4  -5 2692.54 153.021  -2
   1  -5  -6 2692.54 153.021   1
  -1  -4  -4 6851.38 198.315  -2
   1  -5  -5 6851.38 198.315   1
  -1  -4  -3 10300.0 216.424  -2
   1  -5  -4 10300.0 216.424   1
  -1  -4  -2 19921.4 274.645  -2
   1  -5  -3 19921.4 274.645   1
  -1  -4  -1 2715.82 114.285  -2
   1  -5  -2 2715.82 114.285   1
  -1  -4   0 52128.7 382.283  -2
   1  -5  -1 52128.7 382.283   1
  -1  -4   1 26289.2 330.042  -2
   1  -5   0 26289.2 330.042   1
  -1  -4   2 7131.93 291.695  -2
   1  -5   1 7131.93 291.695   1
  -1  -4   3 512.608 146.621  -2
   1  -5   2 512.608 146.621   1
  -1  -4   4 3323.75 209.184  -2
   1  -5   3 3323.75 209.184   1
  -1  -4   5 9165.19 384.664  -2
   1  -5   4 9165.19 384.664   1
  -1  -4   6 19054.5 543.669  -2
   1  -5   5 19054.5 543.669   1
  -1  -4   7 9503.49 405.250  -2
   1  -5   6 9503.49 405.250   1
  -1  -4   8 6880.01 357.289  -2
   1  -5   7 6880.01 357.289   1
  -1  -4   9 5096.61 321.183  -2
   1  -5   8 5096.61 321.183   1
  -1  -4  10 3212.27 279.835  -2
   1  -5   9 3212.27 279.835   1
  -1  -4  11 3554.52 286.447  -2
   1  -5  10 3554.52 286.447   1
  -1  -4  12 2579.81 252.868  -2
   1  -5  11 2579.81 252.868   1
  -1  -4  13 3146.20 268.762  -2
   1  -5  12 3146.20 268.762   1
  -1  -4  14 5743.35 322.679  -2
   1  -5  13 5743.35 322.679   1
  -1  -4  15 7123.52 756.911  -2
   1  -5  14 7123.52 756.911   1
  -1  -4  16 2382.68 587.595  -2
   1  -5  15 2382.68 587.595   1
  -1  -4  17 1067.38 534.758  -2
   1  -5  16 1067.38 534.758   1
  -1  -4  18 1452.18 599.333  -2
   1  -5  17 1452.18 599.333   1
  -1  -4  19 1720.24 646.481  -2
   1  -5  18 1720.24 646.481   1
  -1  -4  20 1427.25 641.684  -2
   1  -5  19 1427.25 641.684   1
  -1  -3 -16 2645.67 508.574  -2
   1  -4 -17 2645.67 508.574   1
  -1  -3 -15 3259.82 505.089  -2
   1  -4 -16 3259.82 505.089   1
  -1  -3 -14 2776.44 443.900  -2
   1  -4 -15 2776.44 443.900   1
  -1  -3 -13 1596.92 377.536  -2
   1  -4 -14 1596.92 377.536   1
  -1  -3 -12 1351.63 262.020  -2
   1  -4 -13 1351.63 262.020   1
  -1  -3 -11 6224.26 354.703  -2
   1  -4 -12 6224.26 354.703   1
  -1  -3 -10 5043.54 213.338  -2
   1  -4 -11 5043.54 213.338   1
  -1  -3  -9 6359.26 227.226  -2
   1  -4 -10 6359.26 227.226   1
  -1  -3  -8 8531.16 257.919  -2
   1  -4  -9 8531.16 257.919   1
  -1  -3  -7 4492.21 191.120  -2
   1  -4  -8 4492.21 191.120   1
  -1  -3  -6 7705.61 224.481  -2
   1  -4  -7 7705.61 224.481   1
  -1  -3  -5 4306.40 169.307  -2
   1  -4  -6 4306.40 169.307   1
  -1  -3  -4 6908.00 188.411  -2
   1  -4  -5 6908.00 188.411   1
  -1  -3  -3 8582.73 189.212  -2
   1  -4  -4 8582.73 189.212   1
  -1  -3  -2 31624.1 313.200  -2
   1  -4  -3 31624.1 313.200   1
  -1  -3  -1 3139.21 105.881  -2
   1  -4  -2 3139.21 105.881   1
  -1  -3   0 4453.30 114.774  -2
   1  -4  -1 4453.30 114.774   1
  -1  -3   1 7987.94 155.034  -2
   1  -4   0 7987.94 155.034   1
  -1  -3   2 16922.8 252.615  -2
   1  -4   1 16922.8 252.615   1
  -1  -3   3 5170.84 154.121  -2
   1  -4   2 5170.84 154.121   1
  -1  -3   4 11819.0 247.254  -2
   1  -4   3 11819.0 247.254   1
  -1  -3   5 1717.34 205.445  -2
   1  -4   4 1717.34 205.445   1
  -1  -3   6 10824.2 376.327  -2
   1  -4   5 10824.2 376.327   1
  -1  -3   7 31708.0 590.282  -2
   1  -4   6 31708.0 590.282   1
  -1  -3   8 19532.9 487.512  -2
   1  -4   7 19532.9 487.512   1
  -1  -3   9 11528.8 389.660  -2
   1  -4   8 11528.8 389.660   1
  -1  -3  10 2224.19 211.480  -2
   1  -4   9 2224.19 211.480   1
  -1  -3  11 3311.66 238.677  -2
   1  -4  10 3311.66 238.677   1
  -1  -3  12 4508.42 255.197  -2
   1  -4  11 4508.42 255.197   1
  -1  -3  13 8246.40 306.291  -2
   1  -4  12 8246.40 306.291   1
  -1  -3  14 5502.34 617.883  -2
   1  -4  13 5502.34 617.883   1
  -1  -3  15 8131.30 776.749  -2
   1  -4  14 8131.30 776.749   1
  -1  -3  16 3734.38 625.044  -2
   1  -4  15 3734.38 625.044   1
  -1  -3  17 3604.62 652.411  -2
   1  -4  16 3604.62 652.411   1
  -1  -3  18 1223.71 541.753  -2
   1  -4  17 1223.71 541.753   1
  -1  -3  19 826.511 541.881  -2
   1  -4  18 826.511 541.881   1
  -1  -3  20 573.091 558.418  -2
   1  -4  19 573.091 558.418   1
  -1  -2 -17 1518.80 477.120  -2
   1  -3 -18 1518.80 477.120   1
  -1  -2 -16 2962.10 511.733  -2
   1  -3 -17 2962.10 511.733   1
  -1  -2 -15 3146.55 485.722  -2
   1  -3 -16 3146.55 485.722   1
  -1  -2 -14 3753.34 476.202  -2
   1  -3 -15 3753.34 476.202   1
  -1  -2 -13 2071.61 386.192  -2
   1  -3 -14 2071.61 386.192   1
  -1  -2 -12 1428.85 351.228  -2
   1  -3 -13 1428.85 351.228   1
  -1  -2 -11 1850.40 286.753  -2
   1  -3 -12 1850.40 286.753   1
  -1  -2 -10 12138.5 425.018  -2
   1  -3 -11 12138.5 425.018   1
  -1  -2  -9 11409.3 265.492  -2
   1  -3 -10 11409.3 265.492   1
  -1  -2  -8 12881.8 274.292  -2
   1  -3  -9 12881.8 274.292   1
  -1  -2  -7 5862.92 193.678  -2
   1  -3  -8 5862.92 193.678   1
  -1  -2  -6 11283.3 245.636  -2
   1  -3  -7 11283.3 245.636   1
  -1  -2  -5 16134.7 268.228  -2
   1  -3  -6 16134.7 268.228   1
  -1  -2  -4 42048.5 349.220  -2
   1  -3  -5 42048.5 349.220   1
  -1  -2  -3 3450.89 113.244  -2
   1  -3  -4 3450.89 113.244   1
  -1  -2  -2 6457.05 130.868  -2
   1  -3  -3 6457.05 130.868   1
  -1  -2  -1 20012.7 193.940  -2
   1  -3  -2 20012.7 193.940   1
  -1  -2   0 48033.2 273.697  -2
   1  -3  -1 48033.2 273.697   1
  -1  -2   1 56714.0 302.689  -2
   1  -3   0 56714.0 302.689   1
   1  -3   1 43098.5 552.508   1
  -1  -2   2 69512.0 482.406  -2
   1  -3   1 69512.0 482.406   1
  -1  -2   3 2102.10 118.737  -2
   1  -3   2 2102.10 118.737   1
  -1  -2   4 6172.33 166.140  -2
   1  -3   3 6172.33 166.140   1
  -1  -2   5 12802.8 229.639  -2
   1  -3   4 12802.8 229.639   1
  -1  -2   6 8668.93 228.858  -2
   1  -3   5 8668.93 228.858   1
  -1  -2   7 15331.5 371.449  -2
   1  -3   6 15331.5 371.449   1
  -1  -2   8 22316.2 444.981  -2
   1  -3   7 22316.2 444.981   1
  -1  -2   9 8721.66 292.982  -2
   1  -3   8 8721.66 292.982   1
  -1  -2  10 4078.24 209.343  -2
   1  -3   9 4078.24 209.343   1
  -1  -2  11 2943.30 182.319  -2
   1  -3  10 2943.30 182.319   1
  -1  -2  12 1437.89 143.896  -2
   1  -3  11 1437.89 143.896   1
  -1  -2  13 4344.78 546.096  -2
   1  -3  12 4344.78 546.096   1
  -1  -2  14 5424.76 613.262  -2
   1  -3  13 5424.76 613.262   1
  -1  -2  15 5184.92 641.278  -2
   1  -3  14 5184.92 641.278   1
  -1  -2  16 3542.73 597.579  -2
   1  -3  15 3542.73 597.579   1
  -1  -2  17 3192.48 612.455  -2
   1  -3  16 3192.48 612.455   1
  -1  -2  18 1892.81 555.881  -2
   1  -3  17 1892.81 555.881   1
  -1  -2  19 1827.14 584.539  -2
   1  -3  18 1827.14 584.539   1
  -1  -2  20 1288.01 623.001  -2
   1  -3  19 1288.01 623.001   1
  -1  -1 -17 2038.40 497.824  -2
   1  -2 -18 2038.40 497.824   1
  -1  -1 -16 3379.32 520.775  -2
   1  -2 -17 3379.32 520.775   1
  -1  -1 -15 4649.13 527.622  -2
   1  -2 -16 4649.13 527.622   1
  -1  -1 -14 1860.55 400.099  -2
   1  -2 -15 1860.55 400.099   1
  -1  -1 -13 2731.83 404.425  -2
   1  -2 -14 2731.83 404.425   1
  -1  -1 -12 3163.45 406.098  -2
   1  -2 -13 3163.45 406.098   1
  -1  -1 -11 2092.16 349.502  -2
   1  -2 -12 2092.16 349.502   1
  -1  -1 -10 3055.15 381.616  -2
   1  -2 -11 3055.15 381.616   1
  -1  -1  -9 10824.7 421.721  -2
   1  -2 -10 10824.7 421.721   1
  -1  -1  -8 12624.4 367.628  -2
   1  -2  -9 12624.4 367.628   1
  -1  -1  -7 8401.35 205.800  -2
   1  -2  -8 8401.35 205.800   1
  -1  -1  -6 4601.90 130.710  -2
   1  -2  -7 4601.90 130.710   1
  -1  -1  -5 1852.47 94.7517  -2
   1  -2  -6 1852.47 94.7517   1
  -1  -1  -4 6535.19 135.637  -2
   1  -2  -5 6535.19 135.637   1
  -1  -1  -3 8110.79 129.899  -2
   1  -2  -4 8110.79 129.899   1
  -1  -1  -2 13557.3 141.955  -2
   1  -2  -3 13557.3 141.955   1
  -1  -1  -1 11858.6 118.953  -2
   1  -2  -2 11858.6 118.953   1
   1  -2  -1 624.229 92.0073   1
  -1  -1   0 1560.25 72.2355  -2
   1  -2  -1 1560.25 72.2355   1
   1  -2   0 9911.63 142.765   1
   1  -2   1 8098.85 217.968   1
  -1  -1   2 21590.9 230.746  -2
   1  -2   1 21590.9 230.746   1
   1  -2   2 2133.46 158.247   1
  -1  -1   3 5113.28 138.021  -2
   1  -2   2 5113.28 138.021   1
  -1  -1   4 3818.85 117.955  -2
   1  -2   3 3818.85 117.955   1
  -1  -1   5 4220.11 116.394  -2
   1  -2   4 4220.11 116.394   1
  -1  -1   6 11207.7 206.866  -2
   1  -2   5 11207.7 206.866   1
  -1  -1   7 24237.5 298.222  -2
   1  -2   6 24237.5 298.222   1
  -1  -1   8 15069.3 234.429  -2
   1  -2   7 15069.3 234.429   1
  -1  -1   9 17025.3 314.547  -2
   1  -2   8 17025.3 314.547   1
  -1  -1  10 3625.23 418.591  -2
   1  -2   9 3625.23 418.591   1
  -1  -1  11 3977.61 461.461  -2
   1  -2  10 3977.61 461.461   1
  -1  -1  12 2295.44 412.981  -2
   1  -2  11 2295.44 412.981   1
  -1  -1  13 5690.60 589.642  -2
   1  -2  12 5690.60 589.642   1
  -1  -1  14 2921.90 489.969  -2
   1  -2  13 2921.90 489.969   1
  -1  -1  15 7955.85 726.919  -2
   1  -2  14 7955.85 726.919   1
  -1  -1  16 4436.09 609.647  -2
   1  -2  15 4436.09 609.647   1
  -1  -1  17 3753.66 642.783  -2
   1  -2  16 3753.66 642.783   1
  -1  -1  18 1772.01 530.714  -2
   1  -2  17 1772.01 530.714   1
  -1  -1  19 2223.00 614.961  -2
   1  -2  18 2223.00 614.961   1
   1  -2  19 734.315 447.554   1
  -1   0 -18 916.360 467.040  -2
   1  -1 -19 916.360 467.040   1
  -1   0 -17 1894.44 474.339  -2
   1  -1 -18 1894.44 474.339   1
  -1   0 -16 2525.05 469.060  -2
   1  -1 -17 2525.05 469.060   1
  -1   0 -15 3695.20 480.687  -2
   1  -1 -16 3695.20 480.687   1
  -1   0 -14 6267.36 526.979  -2
   1  -1 -15 6267.36 526.979   1
  -1   0 -13 2753.86 388.782  -2
   1  -1 -14 2753.86 388.782   1
  -1   0 -12 1632.39 349.863  -2
   1  -1 -13 1632.39 349.863   1
  -1   0 -11 1998.54 332.049  -2
   1  -1 -12 1998.54 332.049   1
  -1   0 -10 7454.02 485.829  -2
   1  -1 -11 7454.02 485.829   1
  -1   0  -9 5741.53 403.425  -2
   1  -1 -10 5741.53 403.425   1
  -1   0  -8 22764.8 653.633  -2
   1  -1  -9 22764.8 653.633   1
  -1   0  -7 8699.36 212.789  -2
   1  -1  -8 8699.36 212.789   1
  -1   0  -6 19769.0 295.071  -2
   1  -1  -7 19769.0 295.071   1
  -1   0  -5 9938.01 192.402  -2
   1  -1  -6 9938.01 192.402   1
  -1   0  -4 7107.55 124.306  -2
   1  -1  -5 7107.55 124.306   1
  -1   0  -3 10889.5 122.333  -2
   1  -1  -4 10889.5 122.333   1
  -1   0  -2 46001.8 213.754  -2
   1  -1  -3 46001.8 213.754   1
   1  -1  -2 5638.00 177.121   1
  -1   0  -1 10881.1 166.639  -2
   1  -1  -2 10881.1 166.639   1
   1  -1   2 22239.8 336.270   1
  -1   0   3 46468.2 293.119  -2
   1  -1   2 46468.2 293.119   1
  -1   0   4 20379.4 184.088  -2
   1  -1   3 20379.4 184.088   1
  -1   0   5 5043.74 108.938  -2
   1  -1   4 5043.74 108.938   1
  -1   0   6 530.646 99.7432  -2
   1  -1   5 530.646 99.7432   1
  -1   0   7 10922.4 247.837  -2
   1  -1   6 10922.4 247.837   1
  -1   0   8 13417.9 268.180  -2
   1  -1   7 13417.9 268.180   1
  -1   0   9 35311.3 1004.48  -2
   1  -1   8 35311.3 1004.48   1
  -1   0  10 7775.43 563.706  -2
   1  -1   9 7775.43 563.706   1
  -1   0  11 2760.60 404.284  -2
   1  -1  10 2760.60 404.284   1
  -1   0  12 810.435 337.607  -2
   1  -1  11 810.435 337.607   1
  -1   0  13 3211.04 481.473  -2
   1  -1  12 3211.04 481.473   1
  -1   0  14 4765.64 568.148  -2
   1  -1  13 4765.64 568.148   1
  -1   0  15 7026.09 699.480  -2
   1  -1  14 7026.09 699.480   1
  -1   0  16 4074.36 608.446  -2
   1  -1  15 4074.36 608.446   1
  -1   0  17 2532.68 559.186  -2
   1  -1  16 2532.68 559.186   1
  -1   0  18 2599.20 586.334  -2
   1  -1  17 2599.20 586.334   1
  -1   0  19 1546.26 546.851  -2
   1  -1  18 1546.26 546.851   1
  -1   1 -18 967.716 433.066  -2
   1   0 -19 967.716 433.066   1
  -1   1 -17 2177.19 467.282  -2
   1   0 -18 2177.19 467.282   1
  -1   1 -16 1763.00 420.877  -2
   1   0 -17 1763.00 420.877   1
  -1   1 -15 3109.40 450.073  -2
   1   0 -16 3109.40 450.073   1
  -1   1 -14 6127.18 530.019  -2
   1   0 -15 6127.18 530.019   1
  -1   1 -13 4455.41 451.203  -2
   1   0 -14 4455.41 451.203   1
  -1   1 -12 2207.43 365.047  -2
   1   0 -13 2207.43 365.047   1
  -1   1 -11 553.360 278.671  -2
   1   0 -12 553.360 278.671   1
  -1   1 -10 2091.22 306.683  -2
   1   0 -11 2091.22 306.683   1
  -1   1  -9 7179.43 417.656  -2
   1   0 -10 7179.43 417.656   1
  -1   1  -8 34978.4 344.377  -2
   1   0  -9 34978.4 344.377   1
  -1   1  -7 13459.6 178.371  -2
   1   0  -8 13459.6 178.371   1
  -1   1  -6 10737.8 150.131  -2
   1   0  -7 10737.8 150.131   1
  -1   1  -5 733.172 63.3694  -2
   1   0  -6 733.172 63.3694   1
  -1   1  -4 5348.53 100.408  -2
   1   0  -5 5348.53 100.408   1
   1   0  -4 10296.4 216.083   1
  -1   1  -3 20836.5 183.007  -2
   1   0  -4 20836.5 183.007   1
  -1   1  -2 45655.5 205.637  -2
   1   0  -3 45655.5 205.637   1
  -1   1  -1 8632.68 157.932  -2
   1   0  -2 8632.68 157.932   1
  -1   1   2 10860.1 220.471  -2
   1   0   1 10860.1 220.471   1
  -1   1   3 44076.5 283.115  -2
   1   0   2 44076.5 283.115   1
  -1   1   4 11083.1 159.769  -2
   1   0   3 11083.1 159.769   1
  -1   1   5 6998.21 139.966  -2
   1   0   4 6998.21 139.966   1
  -1   1   6 9732.47 182.941  -2
   1   0   5 9732.47 182.941   1
  -1   1   7 18684.3 240.561  -2
   1   0   6 18684.3 240.561   1
  -1   1   8 9556.74 157.609  -2
   1   0   7 9556.74 157.609   1
  -1   1   9 23029.3 824.127  -2
   1   0   8 23029.3 824.127   1
  -1   1  10 6414.92 515.795  -2
   1   0   9 6414.92 515.795   1
  -1   1  11 9031.30 619.165  -2
   1   0  10 9031.30 619.165   1
  -1   1  12 2270.17 410.889  -2
   1   0  11 2270.17 410.889   1
  -1   1  13 1473.06 409.347  -2
   1   0  12 1473.06 409.347   1
  -1   1  14 3431.53 512.125  -2
   1   0  13 3431.53 512.125   1
  -1   1  15 8058.35 735.061  -2
   1   0  14 8058.35 735.061   1
  -1   1  16 4764.93 623.461  -2
   1   0  15 4764.93 623.461   1
  -1   1  17 2705.90 595.294  -2
   1   0  16 2705.90 595.294   1
  -1   1  18 2397.56 586.453  -2
   1   0  17 2397.56 586.453   1
  -1   1  19 1242.36 548.826  -2
   1   0  18 1242.36 548.826   1
  -1   2 -18 1472.97 466.886  -2
   1   1 -19 1472.97 466.886   1
  -1   2 -17 1628.94 456.129  -2
   1   1 -18 1628.94 456.129   1
  -1   2 -16 3625.23 501.032  -2
   1   1 -17 3625.23 501.032   1
  -1   2 -15 3776.47 470.184  -2
   1   1 -16 3776.47 470.184   1
  -1   2 -14 7070.89 532.379  -2
   1   1 -15 7070.89 532.379   1
  -1   2 -13 2891.65 396.890  -2
   1   1 -14 2891.65 396.890   1
  -1   2 -12 5522.73 447.697  -2
   1   1 -13 5522.73 447.697   1
  -1   2 -11 2191.50 330.509  -2
   1   1 -12 2191.50 330.509   1
  -1   2 -10 3953.22 101.895  -2
   1   1 -11 3953.22 101.895   1
  -1   2  -9 2792.81 104.999  -2
   1   1 -10 2792.81 104.999   1
  -1   2  -8 16761.8 227.897  -2
   1   1  -9 16761.8 227.897   1
  -1   2  -7 14194.0 217.979  -2
   1   1  -8 14194.0 217.979   1
  -1   2  -6 24598.5 295.395  -2
   1   1  -7 24598.5 295.395   1
  -1   2  -5 10458.3 253.666  -2
   1   1  -6 10458.3 253.666   1
  -1   2  -4 4536.94 150.939  -2
   1   1  -5 4536.94 150.939   1
   1   1  -4 1391.47 169.243   1
  -1   2  -3 3580.79 134.954  -2
   1   1  -4 3580.79 134.954   1
   1   1  -3 2637.07 185.745   1
  -1   2  -2 4802.34 120.854  -2
   1   1  -3 4802.34 120.854   1
   1   1  -2 9909.05 286.911   1
  -1   2  -1 21843.2 185.060  -2
   1   1  -2 21843.2 185.060   1
   1   1  -1 8728.03 231.171   1
  -1   2   0 18468.3 392.811  -2
   1   1  -1 18468.3 392.811   1
  -1   2   1 1636.34 84.7892  -2
   1   1   0 1636.34 84.7892   1
  -1   2   2 11524.6 239.973  -2
   1   1   1 11524.6 239.973   1
  -1   2   3 13668.1 258.854  -2
   1   1   2 13668.1 258.854   1
  -1   2   4 8139.27 281.115  -2
   1   1   3 8139.27 281.115   1
  -1   2   6 1802.28 114.870  -2
   1   1   5 1802.28 114.870   1
  -1   2   7 4680.20 154.442  -2
   1   1   6 4680.20 154.442   1
  -1   2   8 7816.74 182.551  -2
   1   1   7 7816.74 182.551   1
  -1   2   9 11814.8 201.383  -2
   1   1   8 11814.8 201.383   1
  -1   2  10 8725.97 133.668  -2
   1   1   9 8725.97 133.668   1
  -1   2  11 3551.85 459.187  -2
   1   1  10 3551.85 459.187   1
  -1   2  12 2562.57 435.406  -2
   1   1  11 2562.57 435.406   1
  -1   2  13 3833.03 516.532  -2
   1   1  12 3833.03 516.532   1
  -1   2  14 2240.68 471.694  -2
   1   1  13 2240.68 471.694   1
  -1   2  15 1990.60 481.004  -2
   1   1  14 1990.60 481.004   1
  -1   2  16 6432.84 723.105  -2
   1   1  15 6432.84 723.105   1
  -1   2  17 5084.32 678.080  -2
   1   1  16 5084.32 678.080   1
  -1   2  18 2747.64 599.468  -2
   1   1  17 2747.64 599.468   1
   1   1  18 1343.46 418.067   1
  -1   3 -19 1279.53 474.236  -2
   1   2 -20 1279.53 474.236   1
  -1   3 -18 1543.21 445.285  -2
   1   2 -19 1543.21 445.285   1
  -1   3 -17 2162.54 459.166  -2
   1   2 -18 2162.54 459.166   1
  -1   3 -16 2561.99 432.719  -2
   1   2 -17 2561.99 432.719   1
  -1   3 -15 3301.54 449.977  -2
   1   2 -16 3301.54 449.977   1
  -1   3 -14 4729.11 474.183  -2
   1   2 -15 4729.11 474.183   1
  -1   3 -13 4646.92 434.433  -2
   1   2 -14 4646.92 434.433   1
  -1   3 -12 3417.84 145.314  -2
   1   2 -13 3417.84 145.314   1
  -1   3 -11 1166.70 97.8282  -2
   1   2 -12 1166.70 97.8282   1
  -1   3 -10 2956.60 129.839  -2
   1   2 -11 2956.60 129.839   1
  -1   3  -9 3641.77 318.686  -2
   1   2 -10 3641.77 318.686   1
  -1   3  -8 6781.54 369.229  -2
   1   2  -9 6781.54 369.229   1
  -1   3  -7 18630.1 519.132  -2
   1   2  -8 18630.1 519.132   1
  -1   3  -6 12585.8 415.234  -2
   1   2  -7 12585.8 415.234   1
  -1   3  -5 9207.01 222.804  -2
   1   2  -6 9207.01 222.804   1
  -1   3  -4 12236.6 228.807  -2
   1   2  -5 12236.6 228.807   1
  -1   3  -3 6268.14 143.330  -2
   1   2  -4 6268.14 143.330   1
  -1   3  -2 2350.13 96.0274  -2
   1   2  -3 2350.13 96.0274   1
  -1   3  -1 70842.1 430.616  -2
   1   2  -2 70842.1 430.616   1
  -1   3   0 59604.8 534.106  -2
   1   2  -1 59604.8 534.106   1
  -1   3   1 47542.9 410.464  -2
   1   2   0 47542.9 410.464   1
  -1   3   2 19865.0 303.264  -2
   1   2   1 19865.0 303.264   1
  -1   3   3 7285.38 219.048  -2
   1   2   2 7285.38 219.048   1
  -1   3   4 4002.49 354.250  -2
   1   2   3 4002.49 354.250   1
  -1   3   5 38635.7 953.517  -2
   1   2   4 38635.7 953.517   1
  -1   3   6 14319.0 683.058  -2
   1   2   5 14319.0 683.058   1
  -1   3   9 11576.2 246.726  -2
   1   2   8 11576.2 246.726   1
  -1   3  10 9901.35 214.539  -2
   1   2   9 9901.35 214.539   1
  -1   3  11 8884.18 144.729  -2
   1   2  10 8884.18 144.729   1
  -1   3  12 2596.27 431.749  -2
   1   2  11 2596.27 431.749   1
  -1   3  13 1214.27 381.331  -2
   1   2  12 1214.27 381.331   1
  -1   3  14 2469.13 494.233  -2
   1   2  13 2469.13 494.233   1
  -1   3  15 2968.85 535.709  -2
   1   2  14 2968.85 535.709   1
  -1   3  16 3067.90 592.214  -2
   1   2  15 3067.90 592.214   1
  -1   3  17 3190.17 628.486  -2
   1   2  16 3190.17 628.486   1
  -1   3  18 1491.02 533.941  -2
   1   2  17 1491.02 533.941   1
  -1   4 -19 714.827 443.228  -2
   1   3 -20 714.827 443.228   1
  -1   4 -18 1307.58 436.346  -2
   1   3 -19 1307.58 436.346   1
  -1   4 -17 1319.65 416.663  -2
   1   3 -18 1319.65 416.663   1
  -1   4 -16 4073.63 487.528  -2
   1   3 -17 4073.63 487.528   1
  -1   4 -15 3719.19 470.337  -2
   1   3 -16 3719.19 470.337   1
  -1   4 -14 8629.60 563.943  -2
   1   3 -15 8629.60 563.943   1
  -1   4 -13 4563.12 435.664  -2
   1   3 -14 4563.12 435.664   1
  -1   4 -12 8657.66 278.362  -2
   1   3 -13 8657.66 278.362   1
  -1   4 -11 4411.80 387.568  -2
   1   3 -12 4411.80 387.568   1
  -1   4 -10 3339.89 323.740  -2
   1   3 -11 3339.89 323.740   1
  -1   4  -9 1746.10 262.888  -2
   1   3 -10 1746.10 262.888   1
  -1   4  -8 10013.3 417.869  -2
   1   3  -9 10013.3 417.869   1
  -1   4  -7 15729.2 477.265  -2
   1   3  -8 15729.2 477.265   1
  -1   4  -6 27068.8 554.721  -2
   1   3  -7 27068.8 554.721   1
  -1   4  -5 8664.23 307.487  -2
   1   3  -6 8664.23 307.487   1
  -1   4  -4 2060.42 131.513  -2
   1   3  -5 2060.42 131.513   1
  -1   4  -3 12259.8 200.003  -2
   1   3  -4 12259.8 200.003   1
  -1   4  -2 4984.53 114.545  -2
   1   3  -3 4984.53 114.545   1
  -1   4  -1 16415.9 272.430  -2
   1   3  -2 16415.9 272.430   1
  -1   4   0 7798.81 267.298  -2
   1   3  -1 7798.81 267.298   1
  -1   4   1 4580.04 177.274  -2
   1   3   0 4580.04 177.274   1
  -1   4   2 3095.22 204.101  -2
   1   3   1 3095.22 204.101   1
  -1   4   3 30243.7 776.400  -2
   1   3   2 30243.7 776.400   1
  -1   4   4 7690.47 470.700  -2
   1   3   3 7690.47 470.700   1
  -1   4   5 5938.54 466.654  -2
   1   3   4 5938.54 466.654   1
  -1   4   6 3467.86 413.650  -2
   1   3   5 3467.86 413.650   1
  -1   4   7 8013.83 608.242  -2
   1   3   6 8013.83 608.242   1
  -1   4   8 4235.76 522.819  -2
   1   3   7 4235.76 522.819   1
  -1   4  11 4142.04 255.356  -2
   1   3  10 4142.04 255.356   1
  -1   4  14 1616.10 435.739  -2
   1   3  13 1616.10 435.739   1
  -1   4  15 3160.41 576.790  -2
   1   3  14 3160.41 576.790   1
  -1   4  16 3739.35 628.187  -2
   1   3  15 3739.35 628.187   1
  -1   4  17 2494.49 576.824  -2
   1   3  16 2494.49 576.824   1
  -1   5 -19 1887.66 495.500  -2
   1   4 -20 1887.66 495.500   1
  -1   5 -18 1461.44 451.307  -2
   1   4 -19 1461.44 451.307   1
  -1   5 -17 1728.35 431.466  -2
   1   4 -18 1728.35 431.466   1
  -1   5 -16 1243.44 391.931  -2
   1   4 -17 1243.44 391.931   1
  -1   5 -15 2225.15 400.581  -2
   1   4 -16 2225.15 400.581   1
  -1   5 -14 7566.74 531.534  -2
   1   4 -15 7566.74 531.534   1
  -1   5 -13 6463.49 474.913  -2
   1   4 -14 6463.49 474.913   1
  -1   5 -12 3078.36 353.294  -2
   1   4 -13 3078.36 353.294   1
  -1   5 -11 2545.54 314.300  -2
   1   4 -12 2545.54 314.300   1
  -1   5 -10 3199.46 315.916  -2
   1   4 -11 3199.46 315.916   1
  -1   5  -9 3178.29 284.688  -2
   1   4 -10 3178.29 284.688   1
  -1   5  -8 4753.10 308.021  -2
   1   4  -9 4753.10 308.021   1
  -1   5  -7 6814.27 319.870  -2
   1   4  -8 6814.27 319.870   1
  -1   5  -6 6888.51 299.098  -2
   1   4  -7 6888.51 299.098   1
  -1   5  -5 18503.2 387.153  -2
   1   4  -6 18503.2 387.153   1
  -1   5  -4 8927.88 216.477  -2
   1   4  -5 8927.88 216.477   1
  -1   5  -3 4216.04 132.630  -2
   1   4  -4 4216.04 132.630   1
  -1   5  -2 476.069 114.844  -2
   1   4  -3 476.069 114.844   1
  -1   5  -1 7263.33 224.931  -2
   1   4  -2 7263.33 224.931   1
  -1   5   1 50716.6 946.711  -2
   1   4   0 50716.6 946.711   1
  -1   5   2 2530.08 296.145  -2
   1   4   1 2530.08 296.145   1
  -1   5   3 17482.8 655.253  -2
   1   4   2 17482.8 655.253   1
  -1   5   4 9379.91 531.638  -2
   1   4   3 9379.91 531.638   1
  -1   5   5 5518.48 468.460  -2
   1   4   4 5518.48 468.460   1
  -1   5   6 2871.03 407.945  -2
   1   4   5 2871.03 407.945   1
  -1   5   7 13672.8 778.173  -2
   1   4   6 13672.8 778.173   1
  -1   5   8 5678.59 612.789  -2
   1   4   7 5678.59 612.789   1
  -1   5   9 10009.1 751.573  -2
   1   4   8 10009.1 751.573   1
  -1   5  15 2072.92 515.574  -2
   1   4  14 2072.92 515.574   1
  -1   5  16 3285.66 609.714  -2
   1   4  15 3285.66 609.714   1
  -1   5  17 2937.31 638.612  -2
   1   4  16 2937.31 638.612   1
  -1   6 -19 642.135 436.182  -2
   1   5 -20 642.135 436.182   1
  -1   6 -18 1512.88 431.024  -2
   1   5 -19 1512.88 431.024   1
  -1   6 -17 1514.34 418.539  -2
   1   5 -18 1514.34 418.539   1
  -1   6 -16 3894.33 465.462  -2
   1   5 -17 3894.33 465.462   1
  -1   6 -15 2712.02 416.678  -2
   1   5 -16 2712.02 416.678   1
  -1   6 -14 4549.09 440.831  -2
   1   5 -15 4549.09 440.831   1
  -1   6 -13 6573.94 470.746  -2
   1   5 -14 6573.94 470.746   1
  -1   6 -12 11363.9 541.725  -2
   1   5 -13 11363.9 541.725   1
  -1   6 -11 4792.99 320.816  -2
   1   5 -12 4792.99 320.816   1
  -1   6 -10 2282.88 236.589  -2
   1   5 -11 2282.88 236.589   1
  -1   6  -9 1342.27 228.964  -2
   1   5 -10 1342.27 228.964   1
  -1   6  -8 2890.92 253.179  -2
   1   5  -9 2890.92 253.179   1
  -1   6  -7 18239.2 460.559  -2
   1   5  -8 18239.2 460.559   1
  -1   6  -6 11031.9 330.798  -2
   1   5  -7 11031.9 330.798   1
  -1   6  -5 6824.41 230.788  -2
   1   5  -6 6824.41 230.788   1
  -1   6  -4 9888.16 199.067  -2
   1   5  -5 9888.16 199.067   1
  -1   6  -3 4548.45 206.938  -2
   1   5  -4 4548.45 206.938   1
  -1   6  -2 1066.55 143.433  -2
   1   5  -3 1066.55 143.433   1
  -1   6   1 12794.6 556.840  -2
   1   5   0 12794.6 556.840   1
  -1   6   2 15207.2 645.523  -2
   1   5   1 15207.2 645.523   1
  -1   6   3 5174.35 432.920  -2
   1   5   2 5174.35 432.920   1
  -1   6   4 1425.43 329.144  -2
   1   5   3 1425.43 329.144   1
  -1   6   5 6286.40 527.125  -2
   1   5   4 6286.40 527.125   1
  -1   6   6 4245.75 493.532  -2
   1   5   5 4245.75 493.532   1
  -1   6   7 7752.74 680.088  -2
   1   5   6 7752.74 680.088   1
  -1   6   8 5962.48 623.897  -2
   1   5   7 5962.48 623.897   1
  -1   6   9 3928.31 579.140  -2
   1   5   8 3928.31 579.140   1
  -1   6  10 4977.19 647.800  -2
   1   5   9 4977.19 647.800   1
  -1   6  15 1348.31 493.988  -2
   1   5  14 1348.31 493.988   1
  -1   6  16 2238.08 619.108  -2
   1   5  15 2238.08 619.108   1
  -1   7 -18 225.567 397.672  -2
   1   6 -19 225.567 397.672   1
  -1   7 -17 1523.91 415.286  -2
   1   6 -18 1523.91 415.286   1
  -1   7 -16 1336.81 359.827  -2
   1   6 -17 1336.81 359.827   1
  -1   7 -15 3719.00 439.866  -2
   1   6 -16 3719.00 439.866   1
  -1   7 -14 2739.00 384.881  -2
   1   6 -15 2739.00 384.881   1
  -1   7 -13 5061.69 412.092  -2
   1   6 -14 5061.69 412.092   1
  -1   7 -12 2942.25 291.596  -2
   1   6 -13 2942.25 291.596   1
  -1   7 -11 3965.49 290.224  -2
   1   6 -12 3965.49 290.224   1
  -1   7 -10 4340.98 289.070  -2
   1   6 -11 4340.98 289.070   1
  -1   7  -9 3229.06 240.486  -2
   1   6 -10 3229.06 240.486   1
  -1   7  -8 1706.67 206.654  -2
   1   6  -9 1706.67 206.654   1
  -1   7  -7 13191.1 373.860  -2
   1   6  -8 13191.1 373.860   1
  -1   7  -6 9725.89 284.149  -2
   1   6  -7 9725.89 284.149   1
  -1   7  -5 15767.6 279.774  -2
   1   6  -6 15767.6 279.774   1
  -1   7  -4 8726.78 295.420  -2
   1   6  -5 8726.78 295.420   1
  -1   7  -3 4843.33 203.808  -2
   1   6  -4 4843.33 203.808   1
  -1   7  -2 870.828 126.325  -2
   1   6  -3 870.828 126.325   1
  -1   7   1 14862.3 676.255  -2
   1   6   0 14862.3 676.255   1
  -1   7   2 15626.3 706.081  -2
   1   6   1 15626.3 706.081   1
  -1   7   3 11921.5 655.280  -2
   1   6   2 11921.5 655.280   1
  -1   7   4 3769.97 449.488  -2
   1   6   3 3769.97 449.488   1
  -1   7   5 8933.93 651.300  -2
   1   6   4 8933.93 651.300   1
  -1   7   6 3574.82 517.569  -2
   1   6   5 3574.82 517.569   1
  -1   7   7 4625.45 567.411  -2
   1   6   6 4625.45 567.411   1
  -1   7   8 6450.86 677.431  -2
   1   6   7 6450.86 677.431   1
  -1   7   9 8324.44 749.628  -2
   1   6   8 8324.44 749.628   1
  -1   7  10 5924.22 718.197  -2
   1   6   9 5924.22 718.197   1
  -1   7  11 5014.87 716.474  -2
   1   6  10 5014.87 716.474   1
  -1   8 -18 1091.15 408.544  -2
   1   7 -19 1091.15 408.544   1
  -1   8 -17 1811.92 412.630  -2
   1   7 -18 1811.92 412.630   1
  -1   8 -16 1336.91 355.869  -2
   1   7 -17 1336.91 355.869   1
  -1   8 -15 4100.07 439.890  -2
   1   7 -16 4100.07 439.890   1
  -1   8 -14 3549.97 397.315  -2
   1   7 -15 3549.97 397.315   1
  -1   8 -13 4623.87 348.405  -2
   1   7 -14 4623.87 348.405   1
  -1   8 -12 4165.60 313.598  -2
   1   7 -13 4165.60 313.598   1
  -1   8 -11 3213.68 278.274  -2
   1   7 -12 3213.68 278.274   1
  -1   8 -10 1459.53 209.783  -2
   1   7 -11 1459.53 209.783   1
  -1   8  -9 3561.22 241.061  -2
   1   7 -10 3561.22 241.061   1
  -1   8  -8 3044.99 204.179  -2
   1   7  -9 3044.99 204.179   1
  -1   8  -7 2926.35 188.987  -2
   1   7  -8 2926.35 188.987   1
  -1   8  -6 4466.67 173.919  -2
   1   7  -7 4466.67 173.919   1
  -1   8  -5 5841.59 342.029  -2
   1   7  -6 5841.59 342.029   1
  -1   8  -4 6531.73 303.803  -2
   1   7  -5 6531.73 303.803   1
  -1   8  -3 14491.8 351.042  -2
   1   7  -4 14491.8 351.042   1
  -1   8   1 8296.28 569.251  -2
   1   7   0 8296.28 569.251   1
  -1   8   2 10132.7 652.826  -2
   1   7   1 10132.7 652.826   1
  -1   8   3 8176.91 638.826  -2
   1   7   2 8176.91 638.826   1
  -1   8   4 4674.43 373.128  -2
   1   7   3 4674.43 373.128   1
  -1   8   5 4286.09 366.850  -2
   1   7   4 4286.09 366.850   1
  -1   8   6 2287.73 332.271  -2
   1   7   5 2287.73 332.271   1
  -1   8   7 4051.07 403.765  -2
   1   7   6 4051.07 403.765   1
  -1   8   8 2961.36 552.281  -2
   1   7   7 2961.36 552.281   1
  -1   8   9 2963.47 591.224  -2
   1   7   8 2963.47 591.224   1
  -1   8  10 3432.46 639.033  -2
   1   7   9 3432.46 639.033   1
  -1   8  11 3383.05 662.163  -2
   1   7  10 3383.05 662.163   1
  -1   9 -18 1107.64 608.730  -2
   1   8 -19 1107.64 608.730   1
  -1   9 -17 1438.29 609.562  -2
   1   8 -18 1438.29 609.562   1
  -1   9 -16 1213.60 352.594  -2
   1   8 -17 1213.60 352.594   1
  -1   9 -15 3684.39 411.737  -2
   1   8 -16 3684.39 411.737   1
  -1   9 -14 1826.65 291.352  -2
   1   8 -15 1826.65 291.352   1
  -1   9 -13 3431.73 308.232  -2
   1   8 -14 3431.73 308.232   1
  -1   9 -12 2794.78 281.575  -2
   1   8 -13 2794.78 281.575   1
  -1   9 -11 8435.72 368.087  -2
   1   8 -12 8435.72 368.087   1
  -1   9 -10 3154.29 241.734  -2
   1   8 -11 3154.29 241.734   1
  -1   9  -9 4078.55 234.009  -2
   1   8 -10 4078.55 234.009   1
  -1   9  -8 2825.40 184.243  -2
   1   8  -9 2825.40 184.243   1
  -1   9  -7 4409.22 165.313  -2
   1   8  -8 4409.22 165.313   1
  -1   9  -6 5707.50 330.729  -2
   1   8  -7 5707.50 330.729   1
  -1   9  -5 13114.2 404.437  -2
   1   8  -6 13114.2 404.437   1
  -1   9  -4 4247.69 239.395  -2
   1   8  -5 4247.69 239.395   1
  -1   9   0 2835.31 461.869  -2
   1   8  -1 2835.31 461.869   1
  -1   9   1 9038.12 473.811  -2
   1   8   0 9038.12 473.811   1
  -1   9   2 2565.57 312.289  -2
   1   8   1 2565.57 312.289   1
  -1   9   3 12264.4 550.529  -2
   1   8   2 12264.4 550.529   1
  -1   9   4 8179.70 490.594  -2
   1   8   3 8179.70 490.594   1
  -1   9   5 3432.74 376.834  -2
   1   8   4 3432.74 376.834   1
  -1   9   6 2969.12 375.455  -2
   1   8   5 2969.12 375.455   1
  -1   9   7 4872.73 454.340  -2
   1   8   6 4872.73 454.340   1
  -1   9   8 1895.75 371.161  -2
   1   8   7 1895.75 371.161   1
  -1   9   9 5539.21 510.466  -2
   1   8   8 5539.21 510.466   1
  -1   9  10 2442.75 625.848  -2
   1   8   9 2442.75 625.848   1
  -1   9  11 3196.56 724.702  -2
   1   8  10 3196.56 724.702   1
  -1   9  12 1624.18 679.444  -2
   1   8  11 1624.18 679.444   1
  -1  10 -17 650.526 559.733  -2
   1   9 -18 650.526 559.733   1
  -1  10 -16 1118.07 546.074  -2
   1   9 -17 1118.07 546.074   1
  -1  10 -15 1329.18 397.018  -2
   1   9 -16 1329.18 397.018   1
  -1  10 -14 2966.25 441.025  -2
   1   9 -15 2966.25 441.025   1
  -1  10 -13 3600.66 448.834  -2
   1   9 -14 3600.66 448.834   1
  -1  10 -12 3572.93 405.858  -2
   1   9 -13 3572.93 405.858   1
  -1  10 -11 2002.94 341.711  -2
   1   9 -12 2002.94 341.711   1
  -1  10 -10 2013.57 322.022  -2
   1   9 -11 2013.57 322.022   1
  -1  10  -9 1813.85 301.200  -2
   1   9 -10 1813.85 301.200   1
  -1  10  -8 2193.59 286.258  -2
   1   9  -9 2193.59 286.258   1
  -1  10  -7 2810.35 278.818  -2
   1   9  -8 2810.35 278.818   1
  -1  10  -6 2632.40 240.929  -2
   1   9  -7 2632.40 240.929   1
  -1  10  -5 4165.32 246.136  -2
   1   9  -6 4165.32 246.136   1
  -1  10  -4 6831.15 727.402  -2
   1   9  -5 6831.15 727.402   1
  -1  10  -3 3545.50 554.163  -2
   1   9  -4 3545.50 554.163   1
  -1  10  -2 1775.24 474.438  -2
   1   9  -3 1775.24 474.438   1
  -1  10  -1 3102.65 523.762  -2
   1   9  -2 3102.65 523.762   1
  -1  10   0 2922.10 511.171  -2
   1   9  -1 2922.10 511.171   1
  -1  10   1 8540.69 499.156  -2
   1   9   0 8540.69 499.156   1
  -1  10   2 5771.82 441.668  -2
   1   9   1 5771.82 441.668   1
  -1  10   3 3475.06 382.596  -2
   1   9   2 3475.06 382.596   1
  -1  10   4 3346.93 390.256  -2
   1   9   3 3346.93 390.256   1
  -1  10   5 3605.50 416.286  -2
   1   9   4 3605.50 416.286   1
  -1  10   6 3598.13 423.657  -2
   1   9   5 3598.13 423.657   1
  -1  10   7 4126.87 463.768  -2
   1   9   6 4126.87 463.768   1
  -1  10   8 2128.59 403.641  -2
   1   9   7 2128.59 403.641   1
  -1  10   9 2522.42 447.963  -2
   1   9   8 2522.42 447.963   1
  -1  10  10 3013.98 481.037  -2
   1   9   9 3013.98 481.037   1
  -1  10  11 3029.25 517.134  -2
   1   9  10 3029.25 517.134   1
  -1  10  12 2506.80 508.146  -2
   1   9  11 2506.80 508.146   1
   1  10 -18 667.644 417.066   1
  -1  11 -16 1282.78 419.496  -2
   1  10 -17 1282.78 419.496   1
  -1  11 -15 1965.15 428.994  -2
   1  10 -16 1965.15 428.994   1
  -1  11 -14 2005.40 409.370  -2
   1  10 -15 2005.40 409.370   1
  -1  11 -13 4222.65 469.610  -2
   1  10 -14 4222.65 469.610   1
  -1  11 -12 3024.28 404.375  -2
   1  10 -13 3024.28 404.375   1
  -1  11 -11 2881.34 367.970  -2
   1  10 -12 2881.34 367.970   1
  -1  11 -10 3388.64 373.459  -2
   1  10 -11 3388.64 373.459   1
  -1  11  -9 3174.47 339.389  -2
   1  10 -10 3174.47 339.389   1
  -1  11  -8 1473.88 258.850  -2
   1  10  -9 1473.88 258.850   1
  -1  11  -7 5716.72 330.745  -2
   1  10  -8 5716.72 330.745   1
  -1  11  -6 5576.95 758.817  -2
   1  10  -7 5576.95 758.817   1
  -1  11  -5 6153.97 759.393  -2
   1  10  -6 6153.97 759.393   1
  -1  11  -4 2741.19 585.315  -2
   1  10  -5 2741.19 585.315   1
  -1  11  -3 4794.13 665.560  -2
   1  10  -4 4794.13 665.560   1
  -1  11  -2 4712.53 637.043  -2
   1  10  -3 4712.53 637.043   1
  -1  11  -1 4366.77 632.213  -2
   1  10  -2 4366.77 632.213   1
  -1  11   0 1220.63 315.413  -2
   1  10  -1 1220.63 315.413   1
  -1  11   1 3682.35 399.110  -2
   1  10   0 3682.35 399.110   1
  -1  11   2 4925.08 447.142  -2
   1  10   1 4925.08 447.142   1
  -1  11   3 8698.90 563.814  -2
   1  10   2 8698.90 563.814   1
  -1  11   4 2769.89 402.199  -2
   1  10   3 2769.89 402.199   1
  -1  11   5 3803.16 453.591  -2
   1  10   4 3803.16 453.591   1
  -1  11   6 1714.86 379.992  -2
   1  10   5 1714.86 379.992   1
  -1  11   7 2060.44 419.510  -2
   1  10   6 2060.44 419.510   1
  -1  11   8 2118.56 427.513  -2
   1  10   7 2118.56 427.513   1
  -1  11   9 3718.97 516.573  -2
   1  10   8 3718.97 516.573   1
  -1  11  10 1368.83 458.803  -2
   1  10   9 1368.83 458.803   1
   1  10  10 1829.23 382.072   1
  -1  12 -16 1167.80 691.474  -2
   1  11 -17 1167.80 691.474   1
  -1  12 -15 1626.78 686.654  -2
   1  11 -16 1626.78 686.654   1
  -1  12 -14 2106.36 691.876  -2
   1  11 -15 2106.36 691.876   1
  -1  12 -13 2051.27 645.853  -2
   1  11 -14 2051.27 645.853   1
  -1  12 -12 2734.36 695.210  -2
   1  11 -13 2734.36 695.210   1
  -1  12 -11 1764.62 639.393  -2
   1  11 -12 1764.62 639.393   1
  -1  12 -10 2391.30 654.299  -2
   1  11 -11 2391.30 654.299   1
  -1  12  -9 3875.00 759.082  -2
   1  11 -10 3875.00 759.082   1
  -1  12  -8 1584.03 573.910  -2
   1  11  -9 1584.03 573.910   1
  -1  12  -7 1489.71 578.797  -2
   1  11  -8 1489.71 578.797   1
  -1  12  -6 1149.06 573.930  -2
   1  11  -7 1149.06 573.930   1
  -1  12  -5 4891.89 749.730  -2
   1  11  -6 4891.89 749.730   1
  -1  12  -4 3023.76 651.457  -2
   1  11  -5 3023.76 651.457   1
  -1  12  -3 4177.94 688.965  -2
   1  11  -4 4177.94 688.965   1
  -1  12  -2 1568.78 540.925  -2
   1  11  -3 1568.78 540.925   1
  -1  12  -1 1081.71 514.161  -2
   1  11  -2 1081.71 514.161   1
  -1  12   0 811.737 326.872  -2
   1  11  -1 811.737 326.872   1
  -1  12   1 2527.66 391.527  -2
   1  11   0 2527.66 391.527   1
  -1  12   2 2701.98 417.885  -2
   1  11   1 2701.98 417.885   1
  -1  12   3 3862.16 462.769  -2
   1  11   2 3862.16 462.769   1
  -1  12   4 2945.85 443.330  -2
   1  11   3 2945.85 443.330   1
  -1  12   5 3003.67 448.085  -2
   1  11   4 3003.67 448.085   1
  -1  12   6 1827.74 432.282  -2
   1  11   5 1827.74 432.282   1
  -1  12   7 1577.96 431.945  -2
   1  11   6 1577.96 431.945   1
  -1  12   8 1764.79 472.813  -2
   1  11   7 1764.79 472.813   1
  -1  12   9 1271.56 451.507  -2
   1  11   8 1271.56 451.507   1
  -1  13 -14 910.563 657.116  -2
   1  12 -15 910.563 657.116   1
  -1  13 -13 1879.66 715.281  -2
   1  12 -14 1879.66 715.281   1
  -1  13 -12 1979.57 689.795  -2
   1  12 -13 1979.57 689.795   1
  -1  13 -11 4090.59 768.875  -2
   1  12 -12 4090.59 768.875   1
  -1  13 -10 1334.10 597.458  -2
   1  12 -11 1334.10 597.458   1
  -1  13  -9 1815.96 643.855  -2
   1  12 -10 1815.96 643.855   1
  -1  13  -8 2229.32 687.787  -2
   1  12  -9 2229.32 687.787   1
  -1  13  -7 1441.29 622.138  -2
   1  12  -8 1441.29 622.138   1
  -1  13  -6 816.450 607.207  -2
   1  12  -7 816.450 607.207   1
  -1  13  -5 4552.32 797.711  -2
   1  12  -6 4552.32 797.711   1
  -1  13  -4 2408.97 644.491  -2
   1  12  -5 2408.97 644.491   1
  -1  13  -3 6072.44 803.288  -2
   1  12  -4 6072.44 803.288   1
  -1  13  -2 2796.89 626.515  -2
   1  12  -3 2796.89 626.515   1
  -1  13  -1 1545.13 573.955  -2
   1  12  -2 1545.13 573.955   1
  -1  13   0 1874.04 401.604  -2
   1  12  -1 1874.04 401.604   1
  -1  13   1 4121.63 489.380  -2
   1  12   0 4121.63 489.380   1
  -1  13   2 2169.09 426.191  -2
   1  12   1 2169.09 426.191   1
  -1  13   3 6273.64 581.862  -2
   1  12   2 6273.64 581.862   1
  -1  13   4 2282.84 440.047  -2
   1  12   3 2282.84 440.047   1
  -1  13   5 3327.96 497.390  -2
   1  12   4 3327.96 497.390   1
  -1  13   6 1215.18 446.801  -2
   1  12   5 1215.18 446.801   1
  -1  13   7 2062.53 498.021  -2
   1  12   6 2062.53 498.021   1
  -1  14 -13 2009.19 744.239  -2
   1  13 -14 2009.19 744.239   1
  -1  14 -12 2618.77 766.278  -2
   1  13 -13 2618.77 766.278   1
  -1  14 -11 2431.05 773.236  -2
   1  13 -12 2431.05 773.236   1
  -1  14 -10 1172.56 667.547  -2
   1  13 -11 1172.56 667.547   1
  -1  14  -9 1497.50 679.142  -2
   1  13 -10 1497.50 679.142   1
  -1  14  -8 706.292 587.084  -2
   1  13  -9 706.292 587.084   1
  -1  14  -7 848.389 619.520  -2
   1  13  -8 848.389 619.520   1
  -1  14  -6 1542.19 683.229  -2
   1  13  -7 1542.19 683.229   1
  -1  14  -5 3609.07 786.823  -2
   1  13  -6 3609.07 786.823   1
  -1  14  -4 1480.22 637.645  -2
   1  13  -5 1480.22 637.645   1
  -1  14  -3 1131.32 633.635  -2
   1  13  -4 1131.32 633.635   1
  -1  14  -2 627.625 599.586  -2
   1  13  -3 627.625 599.586   1
  -1  14  -1 2500.74 464.662  -2
   1  13  -2 2500.74 464.662   1
  -1  14   0 1112.69 404.162  -2
   1  13  -1 1112.69 404.162   1
  -1  14   1 1414.42 431.679  -2
   1  13   0 1414.42 431.679   1
  -1  14   2 567.441 290.585  -2
   1  13   1 567.441 290.585   1
  -1  14   3 1716.53 469.485  -2
   1  13   2 1716.53 469.485   1
  -1  14   4 2093.27 473.345  -2
   1  13   3 2093.27 473.345   1
  -1  14   5 2328.98 505.617  -2
   1  13   4 2328.98 505.617   1
   1  14 -12 987.147 473.818   1
  -1  15 -10 1536.04 718.029  -2
   1  14 -11 1536.04 718.029   1
  -1  15  -9 1428.64 724.656  -2
   1  14 -10 1428.64 724.656   1
  -1  15  -8 1078.03 667.773  -2
   1  14  -9 1078.03 667.773   1
  -1  15  -7 1549.32 763.232  -2
   1  14  -8 1549.32 763.232   1
  -1  15  -6 1453.96 754.177  -2
   1  14  -7 1453.96 754.177   1
  -1  15  -5 1572.37 765.743  -2
   1  14  -6 1572.37 765.743   1
  -1  15  -4 1489.92 745.113  -2
   1  14  -5 1489.92 745.113   1
  -1  15  -3 4033.96 819.273  -2
   1  14  -4 4033.96 819.273   1
  -1  15  -2 1535.58 450.705  -2
   1  14  -3 1535.58 450.705   1
  -1  15  -1 3055.35 495.709  -2
   1  14  -2 3055.35 495.709   1
  -1  15   0 400.514 418.761  -2
   1  14  -1 400.514 418.761   1
  -1  15   1 1488.32 471.094  -2
   1  14   0 1488.32 471.094   1
  -1  15   2 2214.73 504.592  -2
   1  14   1 2214.73 504.592   1
  -2 -14   4 591.997 652.398  -2
   2 -16   2 591.997 652.398   1
  -2 -14   5 2416.66 396.534  -2
   2 -16   3 2416.66 396.534   1
  -2 -14   6 931.473 369.003  -2
   2 -16   4 931.473 369.003   1
  -2 -14   7 1143.32 370.679  -2
   2 -16   5 1143.32 370.679   1
  -2 -14   8 837.636 365.778  -2
   2 -16   6 837.636 365.778   1
  -2 -13  -1 35.0804 323.411  -2
   2 -15  -3 35.0804 323.411   1
  -2 -13   0 2714.19 374.388  -2
   2 -15  -2 2714.19 374.388   1
  -2 -13   1 630.488 333.494  -2
   2 -15  -1 630.488 333.494   1
  -2 -13   2 1555.16 351.035  -2
   2 -15   0 1555.16 351.035   1
  -2 -13   3 609.665 310.736  -2
   2 -15   1 609.665 310.736   1
  -2 -13   4 1432.76 354.371  -2
   2 -15   2 1432.76 354.371   1
  -2 -13   5 938.756 339.978  -2
   2 -15   3 938.756 339.978   1
  -2 -13   6 2219.94 378.928  -2
   2 -15   4 2219.94 378.928   1
  -2 -13   7 1200.37 355.165  -2
   2 -15   5 1200.37 355.165   1
  -2 -13   8 430.661 340.425  -2
   2 -15   6 430.661 340.425   1
  -2 -13   9 695.904 342.847  -2
   2 -15   7 695.904 342.847   1
  -2 -13  10 1314.36 372.642  -2
   2 -15   8 1314.36 372.642   1
  -2 -13  11 678.386 365.377  -2
   2 -15   9 678.386 365.377   1
  -2 -13  12 1352.74 379.336  -2
   2 -15  10 1352.74 379.336   1
  -2 -12  -4 1080.03 415.708  -2
   2 -14  -6 1080.03 415.708   1
  -2 -12  -3 3433.72 482.104  -2
   2 -14  -5 3433.72 482.104   1
  -2 -12  -2 1303.98 331.379  -2
   2 -14  -4 1303.98 331.379   1
  -2 -12  -1 2711.37 355.381  -2
   2 -14  -3 2711.37 355.381   1
  -2 -12   0 878.151 318.247  -2
   2 -14  -2 878.151 318.247   1
  -2 -12   1 1221.61 323.304  -2
   2 -14  -1 1221.61 323.304   1
  -2 -12   2 1101.86 317.170  -2
   2 -14   0 1101.86 317.170   1
  -2 -12   3 3400.00 369.700  -2
   2 -14   1 3400.00 369.700   1
  -2 -12   4 630.290 290.254  -2
   2 -14   2 630.290 290.254   1
  -2 -12   5 1327.00 319.373  -2
   2 -14   3 1327.00 319.373   1
  -2 -12   6 1365.89 324.756  -2
   2 -14   4 1365.89 324.756   1
  -2 -12   7 2926.42 357.017  -2
   2 -14   5 2926.42 357.017   1
  -2 -12   8 373.239 316.508  -2
   2 -14   6 373.239 316.508   1
  -2 -12   9 2019.04 360.956  -2
   2 -14   7 2019.04 360.956   1
  -2 -12  10 650.125 326.461  -2
   2 -14   8 650.125 326.461   1
  -2 -12  11 1112.15 333.426  -2
   2 -14   9 1112.15 333.426   1
  -2 -12  12 696.320 348.774  -2
   2 -14  10 696.320 348.774   1
  -2 -12  13 2226.14 388.744  -2
   2 -14  11 2226.14 388.744   1
  -2 -12  14 1167.24 357.937  -2
   2 -14  12 1167.24 357.937   1
  -2 -12  15 1091.55 437.124  -2
   2 -14  13 1091.55 437.124   1
  -2 -11  -6 3585.21 475.093  -2
   2 -13  -8 3585.21 475.093   1
  -2 -11  -5 1248.77 401.563  -2
   2 -13  -7 1248.77 401.563   1
  -2 -11  -4 6072.64 521.448  -2
   2 -13  -6 6072.64 521.448   1
  -2 -11  -3 1620.71 308.012  -2
   2 -13  -5 1620.71 308.012   1
  -2 -11  -2 4954.03 373.726  -2
   2 -13  -4 4954.03 373.726   1
  -2 -11  -1 849.149 281.960  -2
   2 -13  -3 849.149 281.960   1
  -2 -11   0 4093.07 344.242  -2
   2 -13  -2 4093.07 344.242   1
  -2 -11   1 200.070 218.236  -2
   2 -13  -1 200.070 218.236   1
  -2 -11   2 1651.52 287.446  -2
   2 -13   0 1651.52 287.446   1
  -2 -11   3 832.569 274.910  -2
   2 -13   1 832.569 274.910   1
  -2 -11   4 3457.43 343.691  -2
   2 -13   2 3457.43 343.691   1
  -2 -11   5 554.254 275.016  -2
   2 -13   3 554.254 275.016   1
  -2 -11   6 3123.01 341.017  -2
   2 -13   4 3123.01 341.017   1
  -2 -11   7 1832.54 313.348  -2
   2 -13   5 1832.54 313.348   1
  -2 -11   8 1215.11 304.908  -2
   2 -13   6 1215.11 304.908   1
  -2 -11   9 351.045 294.023  -2
   2 -13   7 351.045 294.023   1
  -2 -11  10 1200.89 308.529  -2
   2 -13   8 1200.89 308.529   1
  -2 -11  11 942.812 381.684  -2
   2 -13   9 942.812 381.684   1
  -2 -11  12 1958.88 362.504  -2
   2 -13  10 1958.88 362.504   1
  -2 -11  13 1326.58 342.005  -2
   2 -13  11 1326.58 342.005   1
  -2 -11  14 2531.45 390.761  -2
   2 -13  12 2531.45 390.761   1
  -2 -11  15 932.250 335.377  -2
   2 -13  13 932.250 335.377   1
  -2 -11  16 1448.32 359.451  -2
   2 -13  14 1448.32 359.451   1
  -2 -10  -8 628.573 597.369  -2
   2 -12 -10 628.573 597.369   1
  -2 -10  -7 5028.73 753.460  -2
   2 -12  -9 5028.73 753.460   1
  -2 -10  -6 313.249 348.205  -2
   2 -12  -8 313.249 348.205   1
  -2 -10  -5 2051.15 399.253  -2
   2 -12  -7 2051.15 399.253   1
  -2 -10  -4 838.663 272.332  -2
   2 -12  -6 838.663 272.332   1
  -2 -10  -3 3707.32 322.234  -2
   2 -12  -5 3707.32 322.234   1
  -2 -10  -2 573.458 253.092  -2
   2 -12  -4 573.458 253.092   1
  -2 -10  -1 3933.35 319.285  -2
   2 -12  -3 3933.35 319.285   1
  -2 -10   0 1795.57 279.879  -2
   2 -12  -2 1795.57 279.879   1
  -2 -10   1 3458.95 304.685  -2
   2 -12  -1 3458.95 304.685   1
  -2 -10   2 1020.97 249.757  -2
   2 -12   0 1020.97 249.757   1
  -2 -10   3 1349.30 264.741  -2
   2 -12   1 1349.30 264.741   1
  -2 -10   4 696.754 249.146  -2
   2 -12   2 696.754 249.146   1
  -2 -10   5 2134.53 287.817  -2
   2 -12   3 2134.53 287.817   1
  -2 -10   6 1090.98 264.091  -2
   2 -12   4 1090.98 264.091   1
  -2 -10   7 5147.32 364.892  -2
   2 -12   5 5147.32 364.892   1
  -2 -10   8 876.969 274.514  -2
   2 -12   6 876.969 274.514   1
  -2 -10   9 955.065 279.676  -2
   2 -12   7 955.065 279.676   1
  -2 -10  10 201.657 278.708  -2
   2 -12   8 201.657 278.708   1
  -2 -10  11 1872.30 317.180  -2
   2 -12   9 1872.30 317.180   1
  -2 -10  12 1390.67 317.931  -2
   2 -12  10 1390.67 317.931   1
  -2 -10  13 3509.65 382.250  -2
   2 -12  11 3509.65 382.250   1
  -2 -10  14 1612.77 334.505  -2
   2 -12  12 1612.77 334.505   1
  -2 -10  15 2197.51 356.190  -2
   2 -12  13 2197.51 356.190   1
  -2 -10  16 1455.12 418.753  -2
   2 -12  14 1455.12 418.753   1
  -2 -10  17 1675.63 699.977  -2
   2 -12  15 1675.63 699.977   1
  -2  -9  -9 744.914 392.857  -2
   2 -11 -11 744.914 392.857   1
  -2  -9  -8 4101.82 471.539  -2
   2 -11 -10 4101.82 471.539   1
  -2  -9  -7 454.339 266.787  -2
   2 -11  -9 454.339 266.787   1
  -2  -9  -6 3559.36 323.935  -2
   2 -11  -8 3559.36 323.935   1
  -2  -9  -5 316.131 186.513  -2
   2 -11  -7 316.131 186.513   1
  -2  -9  -4 5110.98 273.736  -2
   2 -11  -6 5110.98 273.736   1
  -2  -9  -3 1546.17 204.995  -2
   2 -11  -5 1546.17 204.995   1
  -2  -9  -2 7863.21 296.082  -2
   2 -11  -4 7863.21 296.082   1
  -2  -9  -1 991.525 184.711  -2
   2 -11  -3 991.525 184.711   1
  -2  -9   0 6323.10 263.976  -2
   2 -11  -2 6323.10 263.976   1
  -2  -9   1 1620.01 247.802  -2
   2 -11  -1 1620.01 247.802   1
  -2  -9   2 2044.67 258.453  -2
   2 -11   0 2044.67 258.453   1
  -2  -9   3 833.573 229.707  -2
   2 -11   1 833.573 229.707   1
  -2  -9   4 3413.61 289.509  -2
   2 -11   2 3413.61 289.509   1
  -2  -9   5 1286.31 255.252  -2
   2 -11   3 1286.31 255.252   1
  -2  -9   6 7320.27 376.117  -2
   2 -11   4 7320.27 376.117   1
  -2  -9   7 3321.24 317.711  -2
   2 -11   5 3321.24 317.711   1
  -2  -9   8 3172.40 314.930  -2
   2 -11   6 3172.40 314.930   1
  -2  -9   9 716.021 255.817  -2
   2 -11   7 716.021 255.817   1
  -2  -9  10 1486.12 285.307  -2
   2 -11   8 1486.12 285.307   1
  -2  -9  11 555.842 270.892  -2
   2 -11   9 555.842 270.892   1
  -2  -9  12 1911.63 318.985  -2
   2 -11  10 1911.63 318.985   1
  -2  -9  13 1880.62 318.095  -2
   2 -11  11 1880.62 318.095   1
  -2  -9  14 6399.63 513.494  -2
   2 -11  12 6399.63 513.494   1
  -2  -9  15 1081.01 376.154  -2
   2 -11  13 1081.01 376.154   1
  -2  -9  16 1418.61 389.899  -2
   2 -11  14 1418.61 389.899   1
  -2  -9  17 1576.16 692.605  -2
   2 -11  15 1576.16 692.605   1
  -2  -9  18 1448.68 680.973  -2
   2 -11  16 1448.68 680.973   1
  -2  -8 -10 492.355 397.239  -2
   2 -10 -12 492.355 397.239   1
  -2  -8  -9 7276.51 544.666  -2
   2 -10 -11 7276.51 544.666   1
  -2  -8  -8 862.867 374.134  -2
   2 -10 -10 862.867 374.134   1
  -2  -8  -7 4847.52 336.196  -2
   2 -10  -9 4847.52 336.196   1
  -2  -8  -6 392.711 196.452  -2
   2 -10  -8 392.711 196.452   1
  -2  -8  -5 6160.80 279.219  -2
   2 -10  -7 6160.80 279.219   1
  -2  -8  -4 1201.01 190.192  -2
   2 -10  -6 1201.01 190.192   1
  -2  -8  -3 11229.5 319.443  -2
   2 -10  -5 11229.5 319.443   1
  -2  -8  -2 1897.56 194.568  -2
   2 -10  -4 1897.56 194.568   1
  -2  -8  -1 4349.99 227.699  -2
   2 -10  -3 4349.99 227.699   1
  -2  -8   0 573.360 159.414  -2
   2 -10  -2 573.360 159.414   1
  -2  -8   1 7191.68 255.634  -2
   2 -10  -1 7191.68 255.634   1
  -2  -8   2 1211.68 219.016  -2
   2 -10   0 1211.68 219.016   1
  -2  -8   3 5474.40 305.543  -2
   2 -10   1 5474.40 305.543   1
  -2  -8   4 2118.93 247.338  -2
   2 -10   2 2118.93 247.338   1
  -2  -8   5 2463.84 264.461  -2
   2 -10   3 2463.84 264.461   1
  -2  -8   6 2309.30 267.722  -2
   2 -10   4 2309.30 267.722   1
  -2  -8   7 6520.28 348.813  -2
   2 -10   5 6520.28 348.813   1
  -2  -8   8 1500.75 267.616  -2
   2 -10   6 1500.75 267.616   1
  -2  -8   9 3089.83 299.204  -2
   2 -10   7 3089.83 299.204   1
  -2  -8  10 1240.48 265.688  -2
   2 -10   8 1240.48 265.688   1
  -2  -8  11 2670.99 308.988  -2
   2 -10   9 2670.99 308.988   1
  -2  -8  12 922.420 318.783  -2
   2 -10  10 922.420 318.783   1
  -2  -8  13 3371.93 404.054  -2
   2 -10  11 3371.93 404.054   1
  -2  -8  14 2829.14 388.786  -2
   2 -10  12 2829.14 388.786   1
  -2  -8  15 3751.95 430.325  -2
   2 -10  13 3751.95 430.325   1
  -2  -8  16 1042.46 358.949  -2
   2 -10  14 1042.46 358.949   1
  -2  -8  17 1619.01 668.754  -2
   2 -10  15 1619.01 668.754   1
  -2  -8  18 1375.54 695.248  -2
   2 -10  16 1375.54 695.248   1
  -2  -8  19 1202.57 717.713  -2
   2 -10  17 1202.57 717.713   1
  -2  -7 -12 3829.86 511.718  -2
   2  -9 -14 3829.86 511.718   1
  -2  -7 -11 163.373 397.850  -2
   2  -9 -13 163.373 397.850   1
  -2  -7 -10 6577.00 532.087  -2
   2  -9 -12 6577.00 532.087   1
  -2  -7  -9 609.932 273.492  -2
   2  -9 -11 609.932 273.492   1
  -2  -7  -8 8275.34 313.842  -2
   2  -9 -10 8275.34 313.842   1
  -2  -7  -7 827.306 194.711  -2
   2  -9  -9 827.306 194.711   1
  -2  -7  -6 6034.56 230.287  -2
   2  -9  -8 6034.56 230.287   1
  -2  -7  -5 308.745 124.389  -2
   2  -9  -7 308.745 124.389   1
  -2  -7  -4 4415.87 190.118  -2
   2  -9  -6 4415.87 190.118   1
  -2  -7  -3 2474.22 157.802  -2
   2  -9  -5 2474.22 157.802   1
  -2  -7  -2 9943.28 229.139  -2
   2  -9  -4 9943.28 229.139   1
  -2  -7  -1 2089.74 175.010  -2
   2  -9  -3 2089.74 175.010   1
  -2  -7   0 7263.38 242.915  -2
   2  -9  -2 7263.38 242.915   1
  -2  -7   1 1860.05 174.142  -2
   2  -9  -1 1860.05 174.142   1
  -2  -7   2 2541.94 247.494  -2
   2  -9   0 2541.94 247.494   1
  -2  -7   3 1005.53 272.271  -2
   2  -9   1 1005.53 272.271   1
  -2  -7   4 6696.54 384.177  -2
   2  -9   2 6696.54 384.177   1
  -2  -7   5 1728.08 246.017  -2
   2  -9   3 1728.08 246.017   1
  -2  -7   6 2582.62 273.175  -2
   2  -9   4 2582.62 273.175   1
  -2  -7   7 2171.60 261.315  -2
   2  -9   5 2171.60 261.315   1
  -2  -7   8 10195.4 392.892  -2
   2  -9   6 10195.4 392.892   1
  -2  -7   9 1037.68 239.645  -2
   2  -9   7 1037.68 239.645   1
   2  -9   8 354.901 136.584   1
  -2  -7  10 1863.96 330.131  -2
   2  -9   8 1863.96 330.131   1
   2  -9   9 1785.47 225.977   1
  -2  -7  11 2599.97 354.314  -2
   2  -9   9 2599.97 354.314   1
  -2  -7  12 2315.33 228.702  -2
   2  -9  10 2315.33 228.702   1
  -2  -7  13 1109.13 309.681  -2
   2  -9  11 1109.13 309.681   1
  -2  -7  14 6595.82 453.581  -2
   2  -9  12 6595.82 453.581   1
  -2  -7  15 1505.01 331.141  -2
   2  -9  13 1505.01 331.141   1
  -2  -7  16 3549.92 708.628  -2
   2  -9  14 3549.92 708.628   1
  -2  -7  17 1935.27 653.183  -2
   2  -9  15 1935.27 653.183   1
  -2  -7  18 2113.27 686.404  -2
   2  -9  16 2113.27 686.404   1
  -2  -7  19 1118.18 670.337  -2
   2  -9  17 1118.18 670.337   1
  -2  -6 -13 3333.43 401.189  -2
   2  -8 -15 3333.43 401.189   1
  -2  -6 -12 446.356 315.452  -2
   2  -8 -14 446.356 315.452   1
  -2  -6 -11 4531.22 381.310  -2
   2  -8 -13 4531.22 381.310   1
  -2  -6 -10 644.579 276.650  -2
   2  -8 -12 644.579 276.650   1
  -2  -6  -9 10472.2 426.612  -2
   2  -8 -11 10472.2 426.612   1
  -2  -6  -8 341.736 184.529  -2
   2  -8 -10 341.736 184.529   1
  -2  -6  -7 10250.5 275.142  -2
   2  -8  -9 10250.5 275.142   1
  -2  -6  -6 967.562 150.472  -2
   2  -8  -8 967.562 150.472   1
  -2  -6  -5 4632.21 194.508  -2
   2  -8  -7 4632.21 194.508   1
  -2  -6  -4 938.188 136.327  -2
   2  -8  -6 938.188 136.327   1
  -2  -6  -3 8500.98 213.103  -2
   2  -8  -5 8500.98 213.103   1
  -2  -6  -2 1890.51 138.944  -2
   2  -8  -4 1890.51 138.944   1
  -2  -6  -1 12364.1 229.170  -2
   2  -8  -3 12364.1 229.170   1
  -2  -6   0 2129.08 157.003  -2
   2  -8  -2 2129.08 157.003   1
  -2  -6   1 11492.6 262.147  -2
   2  -8  -1 11492.6 262.147   1
  -2  -6   2 1813.72 228.554  -2
   2  -8   0 1813.72 228.554   1
  -2  -6   3 2382.00 246.355  -2
   2  -8   1 2382.00 246.355   1
  -2  -6   4 746.548 222.400  -2
   2  -8   2 746.548 222.400   1
  -2  -6   5 8227.30 379.771  -2
   2  -8   3 8227.30 379.771   1
  -2  -6   6 1155.82 203.634  -2
   2  -8   4 1155.82 203.634   1
  -2  -6   7 8717.09 335.451  -2
   2  -8   5 8717.09 335.451   1
  -2  -6   8 3976.07 275.503  -2
   2  -8   6 3976.07 275.503   1
  -2  -6   9 4859.26 372.763  -2
   2  -8   7 4859.26 372.763   1
  -2  -6  10 2133.87 305.754  -2
   2  -8   8 2133.87 305.754   1
  -2  -6  11 4289.48 357.945  -2
   2  -8   9 4289.48 357.945   1
  -2  -6  12 429.275 258.690  -2
   2  -8  10 429.275 258.690   1
  -2  -6  13 3596.87 348.999  -2
   2  -8  11 3596.87 348.999   1
  -2  -6  14 2789.22 331.611  -2
   2  -8  12 2789.22 331.611   1
  -2  -6  15 8014.26 443.872  -2
   2  -8  13 8014.26 443.872   1
  -2  -6  16 1789.62 616.326  -2
   2  -8  14 1789.62 616.326   1
  -2  -6  17 3127.63 676.060  -2
   2  -8  15 3127.63 676.060   1
  -2  -6  18 437.743 600.010  -2
   2  -8  16 437.743 600.010   1
  -2  -6  19 2439.68 679.358  -2
   2  -8  17 2439.68 679.358   1
   2  -8  18 872.515 483.010   1
  -2  -5 -14 3145.72 407.900  -2
   2  -7 -16 3145.72 407.900   1
  -2  -5 -13 773.586 330.156  -2
   2  -7 -15 773.586 330.156   1
  -2  -5 -12 4961.06 401.768  -2
   2  -7 -14 4961.06 401.768   1
  -2  -5 -11 1420.70 303.034  -2
   2  -7 -13 1420.70 303.034   1
  -2  -5 -10 7716.81 398.728  -2
   2  -7 -12 7716.81 398.728   1
  -2  -5  -9 192.929 242.813  -2
   2  -7 -11 192.929 242.813   1
  -2  -5  -8 10178.4 326.109  -2
   2  -7 -10 10178.4 326.109   1
  -2  -5  -7 831.687 174.875  -2
   2  -7  -9 831.687 174.875   1
  -2  -5  -6 7383.18 258.700  -2
   2  -7  -8 7383.18 258.700   1
  -2  -5  -5 661.649 146.470  -2
   2  -7  -7 661.649 146.470   1
  -2  -5  -4 4138.32 188.994  -2
   2  -7  -6 4138.32 188.994   1
  -2  -5  -3 2439.54 147.727  -2
   2  -7  -5 2439.54 147.727   1
  -2  -5  -2 21068.6 300.573  -2
   2  -7  -4 21068.6 300.573   1
  -2  -5  -1 505.162 107.662  -2
   2  -7  -3 505.162 107.662   1
  -2  -5   0 6714.40 197.668  -2
   2  -7  -2 6714.40 197.668   1
  -2  -5   1 3741.80 166.538  -2
   2  -7  -1 3741.80 166.538   1
  -2  -5   2 5120.14 223.799  -2
   2  -7   0 5120.14 223.799   1
  -2  -5   3 822.623 162.243  -2
   2  -7   1 822.623 162.243   1
  -2  -5   4 5014.32 234.953  -2
   2  -7   2 5014.32 234.953   1
  -2  -5   5 4832.66 240.595  -2
   2  -7   3 4832.66 240.595   1
  -2  -5   6 8365.08 297.579  -2
   2  -7   4 8365.08 297.579   1
  -2  -5   7 1617.85 198.668  -2
   2  -7   5 1617.85 198.668   1
  -2  -5   8 14107.0 480.123  -2
   2  -7   6 14107.0 480.123   1
  -2  -5   9 2915.11 283.378  -2
   2  -7   7 2915.11 283.378   1
  -2  -5  10 3606.29 316.117  -2
   2  -7   8 3606.29 316.117   1
  -2  -5  11 1188.83 259.016  -2
   2  -7   9 1188.83 259.016   1
  -2  -5  12 3182.74 309.416  -2
   2  -7  10 3182.74 309.416   1
  -2  -5  13 585.095 244.344  -2
   2  -7  11 585.095 244.344   1
  -2  -5  14 6437.12 371.419  -2
   2  -7  12 6437.12 371.419   1
  -2  -5  15 4309.41 324.874  -2
   2  -7  13 4309.41 324.874   1
  -2  -5  16 7683.06 803.615  -2
   2  -7  14 7683.06 803.615   1
  -2  -5  17 1031.17 559.907  -2
   2  -7  15 1031.17 559.907   1
  -2  -5  18 1623.71 625.190  -2
   2  -7  16 1623.71 625.190   1
  -2  -5  19 588.445 643.985  -2
   2  -7  17 588.445 643.985   1
  -2  -5  20 2021.63 698.640  -2
   2  -7  18 2021.63 698.640   1
  -2  -4 -14 540.428 412.102  -2
   2  -6 -16 540.428 412.102   1
  -2  -4 -13 4110.89 393.087  -2
   2  -6 -15 4110.89 393.087   1
  -2  -4 -12 347.687 287.898  -2
   2  -6 -14 347.687 287.898   1
  -2  -4 -11 4581.73 350.004  -2
   2  -6 -13 4581.73 350.004   1
  -2  -4 -10 1001.60 261.689  -2
   2  -6 -12 1001.60 261.689   1
  -2  -4  -9 12744.0 298.268  -2
   2  -6 -11 12744.0 298.268   1
  -2  -4  -8 2115.65 173.755  -2
   2  -6 -10 2115.65 173.755   1
  -2  -4  -7 8985.76 242.091  -2
   2  -6  -9 8985.76 242.091   1
  -2  -4  -6 877.650 134.846  -2
   2  -6  -8 877.650 134.846   1
  -2  -4  -5 13553.3 252.213  -2
   2  -6  -7 13553.3 252.213   1
  -2  -4  -4 2819.64 135.066  -2
   2  -6  -6 2819.64 135.066   1
  -2  -4  -3 8732.05 172.640  -2
   2  -6  -5 8732.05 172.640   1
  -2  -4  -2 6067.39 147.063  -2
   2  -6  -4 6067.39 147.063   1
  -2  -4  -1 12073.9 185.377  -2
   2  -6  -3 12073.9 185.377   1
  -2  -4   0 2423.22 110.480  -2
   2  -6  -2 2423.22 110.480   1
  -2  -4   1 14842.0 246.891  -2
   2  -6  -1 14842.0 246.891   1
  -2  -4   2 4118.16 194.996  -2
   2  -6   0 4118.16 194.996   1
  -2  -4   3 9551.25 260.587  -2
   2  -6   1 9551.25 260.587   1
   2  -6   2 647.696 201.139   1
  -2  -4   4 1004.77 190.525  -2
   2  -6   2 1004.77 190.525   1
  -2  -4   5 11957.7 297.498  -2
   2  -6   3 11957.7 297.498   1
  -2  -4   6 5999.07 209.785  -2
   2  -6   4 5999.07 209.785   1
  -2  -4   7 3890.85 217.081  -2
   2  -6   5 3890.85 217.081   1
  -2  -4   8 2850.22 204.003  -2
   2  -6   6 2850.22 204.003   1
  -2  -4   9 18267.6 483.822  -2
   2  -6   7 18267.6 483.822   1
  -2  -4  10 2989.39 263.774  -2
   2  -6   8 2989.39 263.774   1
  -2  -4  11 6319.36 332.951  -2
   2  -6   9 6319.36 332.951   1
  -2  -4  12 572.940 216.204  -2
   2  -6  10 572.940 216.204   1
  -2  -4  13 3764.77 288.158  -2
   2  -6  11 3764.77 288.158   1
  -2  -4  14 2238.55 254.152  -2
   2  -6  12 2238.55 254.152   1
   2  -6  13 3982.65 300.701   1
  -2  -4  15 12203.4 853.126  -2
   2  -6  13 12203.4 853.126   1
  -2  -4  16 1495.64 544.815  -2
   2  -6  14 1495.64 544.815   1
  -2  -4  17 4608.54 677.415  -2
   2  -6  15 4608.54 677.415   1
  -2  -4  18 335.869 541.562  -2
   2  -6  16 335.869 541.562   1
  -2  -4  19 1907.20 655.335  -2
   2  -6  17 1907.20 655.335   1
  -2  -4  20 537.336 627.596  -2
   2  -6  18 537.336 627.596   1
  -2  -3 -15 603.213 434.573  -2
   2  -5 -17 603.213 434.573   1
  -2  -3 -14 4923.89 497.116  -2
   2  -5 -16 4923.89 497.116   1
  -2  -3 -13 290.177 362.987  -2
   2  -5 -15 290.177 362.987   1
  -2  -3 -12 6201.66 397.599  -2
   2  -5 -14 6201.66 397.599   1
  -2  -3 -11 241.918 215.996  -2
   2  -5 -13 241.918 215.996   1
  -2  -3 -10 7545.28 377.041  -2
   2  -5 -12 7545.28 377.041   1
  -2  -3  -9 847.517 146.605  -2
   2  -5 -11 847.517 146.605   1
  -2  -3  -8 23490.7 353.255  -2
   2  -5 -10 23490.7 353.255   1
  -2  -3  -7 515.807 126.895  -2
   2  -5  -9 515.807 126.895   1
  -2  -3  -6 10872.9 207.853  -2
   2  -5  -8 10872.9 207.853   1
  -2  -3  -5 304.617 91.9972  -2
   2  -5  -7 304.617 91.9972   1
  -2  -3  -4 2932.77 118.252  -2
   2  -5  -6 2932.77 118.252   1
  -2  -3  -3 1202.04 91.5807  -2
   2  -5  -5 1202.04 91.5807   1
  -2  -3  -2 19047.7 209.599  -2
   2  -5  -4 19047.7 209.599   1
  -2  -3  -1 1333.85 90.0488  -2
   2  -5  -3 1333.85 90.0488   1
  -2  -3   0 15129.8 186.355  -2
   2  -5  -2 15129.8 186.355   1
   2  -5  -1 449.176 141.883   1
  -2  -3   1 468.543 121.434  -2
   2  -5  -1 468.543 121.434   1
   2  -5   0 1515.40 199.100   1
  -2  -3   2 2847.52 143.164  -2
   2  -5   0 2847.52 143.164   1
   2  -5   1 423.965 91.3599   1
  -2  -3   3 769.563 117.446  -2
   2  -5   1 769.563 117.446   1
   2  -5   2 610.270 78.0227   1
  -2  -3   4 1327.23 189.175  -2
   2  -5   2 1327.23 189.175   1
   2  -5   3 2085.35 157.753   1
  -2  -3   5 4009.44 189.668  -2
   2  -5   3 4009.44 189.668   1
  -2  -3   6 5585.11 214.751  -2
   2  -5   4 5585.11 214.751   1
  -2  -3   7 4108.52 195.472  -2
   2  -5   5 4108.52 195.472   1
  -2  -3   8 11836.6 289.700  -2
   2  -5   6 11836.6 289.700   1
  -2  -3   9 4513.93 205.274  -2
   2  -5   7 4513.93 205.274   1
  -2  -3  10 6371.48 227.722  -2
   2  -5   8 6371.48 227.722   1
  -2  -3  11 2100.37 224.890  -2
   2  -5   9 2100.37 224.890   1
  -2  -3  12 4643.21 270.639  -2
   2  -5  10 4643.21 270.639   1
  -2  -3  13 1467.88 216.419  -2
   2  -5  11 1467.88 216.419   1
  -2  -3  14 3902.37 259.465  -2
   2  -5  12 3902.37 259.465   1
  -2  -3  15 2373.55 507.610  -2
   2  -5  13 2373.55 507.610   1
  -2  -3  16 10154.2 810.969  -2
   2  -5  14 10154.2 810.969   1
  -2  -3  17 2444.79 615.221  -2
   2  -5  15 2444.79 615.221   1
  -2  -3  18 3417.56 658.435  -2
   2  -5  16 3417.56 658.435   1
  -2  -3  19 1007.21 560.250  -2
   2  -5  17 1007.21 560.250   1
  -2  -3  20 1424.61 607.152  -2
   2  -5  18 1424.61 607.152   1
  -2  -2 -16 248.357 430.166  -2
   2  -4 -18 248.357 430.166   1
  -2  -2 -15 6457.86 569.636  -2
   2  -4 -17 6457.86 569.636   1
  -2  -2 -14 894.907 393.451  -2
   2  -4 -16 894.907 393.451   1
  -2  -2 -13 5420.82 483.857  -2
   2  -4 -15 5420.82 483.857   1
  -2  -2 -12 998.325 347.188  -2
   2  -4 -14 998.325 347.188   1
  -2  -2 -11 5514.03 361.696  -2
   2  -4 -13 5514.03 361.696   1
  -2  -2 -10 5269.61 329.587  -2
   2  -4 -12 5269.61 329.587   1
  -2  -2  -9 7937.05 251.549  -2
   2  -4 -11 7937.05 251.549   1
  -2  -2  -8 2164.56 151.353  -2
   2  -4 -10 2164.56 151.353   1
  -2  -2  -7 16405.2 240.159  -2
   2  -4  -9 16405.2 240.159   1
  -2  -2  -6 896.838 98.7476  -2
   2  -4  -8 896.838 98.7476   1
  -2  -2  -5 9911.32 175.530  -2
   2  -4  -7 9911.32 175.530   1
  -2  -2  -4 2890.97 108.633  -2
   2  -4  -6 2890.97 108.633   1
  -2  -2  -3 2748.92 98.3684  -2
   2  -4  -5 2748.92 98.3684   1
  -2  -2  -2 1406.89 79.3323  -2
   2  -4  -4 1406.89 79.3323   1
  -2  -2  -1 38360.7 254.389  -2
   2  -4  -3 38360.7 254.389   1
   2  -4  -2 563.507 115.284   1
  -2  -2   0 954.701 95.0719  -2
   2  -4  -2 954.701 95.0719   1
   2  -4  -1 8849.53 220.808   1
  -2  -2   1 14887.3 215.551  -2
   2  -4  -1 14887.3 215.551   1
   2  -4   0 2363.06 143.841   1
  -2  -2   2 8671.12 170.861  -2
   2  -4   0 8671.12 170.861   1
   2  -4   1 4055.00 124.315   1
  -2  -2   3 5562.65 173.661  -2
   2  -4   1 5562.65 173.661   1
   2  -4   2 2106.17 114.044   1
  -2  -2   4 7479.11 254.554  -2
   2  -4   2 7479.11 254.554   1
   2  -4   3 19277.7 489.699   1
  -2  -2   5 36200.7 405.370  -2
   2  -4   3 36200.7 405.370   1
   2  -4   4 3976.44 266.824   1
  -2  -2   6 5389.40 192.718  -2
   2  -4   4 5389.40 192.718   1
  -2  -2   7 20461.4 327.424  -2
   2  -4   5 20461.4 327.424   1
  -2  -2   8 4883.34 189.784  -2
   2  -4   6 4883.34 189.784   1
  -2  -2   9 14319.7 285.100  -2
   2  -4   7 14319.7 285.100   1
  -2  -2  10 9208.24 241.221  -2
   2  -4   8 9208.24 241.221   1
  -2  -2  11 12980.3 272.363  -2
   2  -4   9 12980.3 272.363   1
  -2  -2  12 1796.25 201.517  -2
   2  -4  10 1796.25 201.517   1
  -2  -2  13 8780.71 303.415  -2
   2  -4  11 8780.71 303.415   1
  -2  -2  14 1023.68 418.799  -2
   2  -4  12 1023.68 418.799   1
  -2  -2  15 8938.53 700.915  -2
   2  -4  13 8938.53 700.915   1
  -2  -2  16 2161.77 511.136  -2
   2  -4  14 2161.77 511.136   1
  -2  -2  17 8680.74 777.298  -2
   2  -4  15 8680.74 777.298   1
  -2  -2  18 858.505 548.916  -2
   2  -4  16 858.505 548.916   1
  -2  -2  19 2545.61 612.360  -2
   2  -4  17 2545.61 612.360   1
  -2  -2  20 609.851 587.841  -2
   2  -4  18 609.851 587.841   1
  -2  -1 -16 3556.41 506.656  -2
   2  -3 -18 3556.41 506.656   1
  -2  -1 -15 271.471 404.118  -2
   2  -3 -17 271.471 404.118   1
  -2  -1 -14 6045.78 493.841  -2
   2  -3 -16 6045.78 493.841   1
  -2  -1 -13 582.129 342.770  -2
   2  -3 -15 582.129 342.770   1
  -2  -1 -12 6242.15 469.453  -2
   2  -3 -14 6242.15 469.453   1
  -2  -1 -11 1808.35 338.600  -2
   2  -3 -13 1808.35 338.600   1
  -2  -1 -10 7923.47 447.506  -2
   2  -3 -12 7923.47 447.506   1
  -2  -1  -9 959.101 144.056  -2
   2  -3 -11 959.101 144.056   1
  -2  -1  -8 20577.0 339.391  -2
   2  -3 -10 20577.0 339.391   1
  -2  -1  -7 1323.42 113.536  -2
   2  -3  -9 1323.42 113.536   1
  -2  -1  -6 18102.2 248.914  -2
   2  -3  -8 18102.2 248.914   1
  -2  -1  -5 4393.55 141.139  -2
   2  -3  -7 4393.55 141.139   1
  -2  -1  -4 6339.59 127.785  -2
   2  -3  -6 6339.59 127.785   1
  -2  -1  -3 3485.77 125.276  -2
   2  -3  -5 3485.77 125.276   1
   2  -3  -4 3685.26 228.266   1
  -2  -1  -2 5809.27 159.539  -2
   2  -3  -4 5809.27 159.539   1
   2  -3  -3 4961.58 140.408   1
  -2  -1  -1 12427.0 175.503  -2
   2  -3  -3 12427.0 175.503   1
   2  -3  -2 9160.02 198.522   1
  -2  -1   0 25302.5 226.513  -2
   2  -3  -2 25302.5 226.513   1
   2  -3  -1 8383.58 198.942   1
  -2  -1   1 16814.6 268.425  -2
   2  -3  -1 16814.6 268.425   1
   2  -3   0 10514.9 131.356   1
  -2  -1   2 20833.1 477.501  -2
   2  -3   0 20833.1 477.501   1
   2  -3   1 4286.31 95.9231   1
  -2  -1   3 7172.71 319.637  -2
   2  -3   1 7172.71 319.637   1
   2  -3   2 1908.53 116.655   1
  -2  -1   4 3944.06 257.205  -2
   2  -3   2 3944.06 257.205   1
   2  -3   3 4956.80 184.243   1
  -2  -1   5 6444.05 215.528  -2
   2  -3   3 6444.05 215.528   1
   2  -3   4 5285.36 271.300   1
  -2  -1   6 12172.5 236.074  -2
   2  -3   4 12172.5 236.074   1
  -2  -1   7 623.069 116.641  -2
   2  -3   5 623.069 116.641   1
  -2  -1   8 10651.2 230.837  -2
   2  -3   6 10651.2 230.837   1
  -2  -1   9 5291.82 178.666  -2
   2  -3   7 5291.82 178.666   1
  -2  -1  10 7026.86 196.277  -2
   2  -3   8 7026.86 196.277   1
  -2  -1  11 4260.03 222.193  -2
   2  -3   9 4260.03 222.193   1
  -2  -1  12 6215.52 246.755  -2
   2  -3  10 6215.52 246.755   1
  -2  -1  13 1324.08 400.687  -2
   2  -3  11 1324.08 400.687   1
  -2  -1  14 5644.78 587.016  -2
   2  -3  12 5644.78 587.016   1
  -2  -1  15 1360.06 463.517  -2
   2  -3  13 1360.06 463.517   1
  -2  -1  16 8664.13 742.671  -2
   2  -3  14 8664.13 742.671   1
  -2  -1  17 2282.96 537.622  -2
   2  -3  15 2282.96 537.622   1
  -2  -1  18 3975.17 654.134  -2
   2  -3  16 3975.17 654.134   1
  -2  -1  19 1523.32 584.778  -2
   2  -3  17 1523.32 584.778   1
  -2  -1  20 2555.59 641.191  -2
   2  -3  18 2555.59 641.191   1
  -2   0 -17 2495.10 501.032  -2
   2  -2 -19 2495.10 501.032   1
  -2   0 -16 1023.88 427.719  -2
   2  -2 -18 1023.88 427.719   1
  -2   0 -15 5942.27 525.736  -2
   2  -2 -17 5942.27 525.736   1
  -2   0 -14 796.377 363.891  -2
   2  -2 -16 796.377 363.891   1
  -2   0 -13 5654.39 470.623  -2
   2  -2 -15 5654.39 470.623   1
  -2   0 -12 1275.01 325.215  -2
   2  -2 -14 1275.01 325.215   1
  -2   0 -11 8121.24 473.240  -2
   2  -2 -13 8121.24 473.240   1
  -2   0 -10 882.816 134.692  -2
   2  -2 -12 882.816 134.692   1
  -2   0  -9 8839.48 248.583  -2
   2  -2 -11 8839.48 248.583   1
  -2   0  -8 2149.87 154.085  -2
   2  -2 -10 2149.87 154.085   1
  -2   0  -7 17888.0 316.613  -2
   2  -2  -9 17888.0 316.613   1
  -2   0  -6 113.729 106.170  -2
   2  -2  -8 113.729 106.170   1
  -2   0  -5 22147.9 252.286  -2
   2  -2  -7 22147.9 252.286   1
  -2   0  -4 1531.67 88.8188  -2
   2  -2  -6 1531.67 88.8188   1
   2  -2  -5 1241.49 151.916   1
  -2   0  -3 4097.62 112.120  -2
   2  -2  -5 4097.62 112.120   1
   2  -2  -4 1998.42 197.338   1
  -2   0  -2 5199.35 129.209  -2
   2  -2  -4 5199.35 129.209   1
   2  -2  -3 10422.2 153.269   1
  -2   0  -1 17047.3 322.533  -2
   2  -2  -3 17047.3 322.533   1
   2  -2  -2 299.355 51.1729   1
  -2   0   0 750.478 111.138  -2
   2  -2  -2 750.478 111.138   1
   2  -2  -1 7810.48 118.308   1
  -2   0   1 17219.7 248.632  -2
   2  -2  -1 17219.7 248.632   1
   2  -2   0 584.672 52.2660   1
  -2   0   2 2317.01 228.982  -2
   2  -2   0 2317.01 228.982   1
   2  -2   1 8754.37 121.544   1
  -2   0   3 13828.2 389.543  -2
   2  -2   1 13828.2 389.543   1
   2  -2   2 7931.03 130.150   1
  -2   0   4 18850.0 432.238  -2
   2  -2   2 18850.0 432.238   1
   2  -2   3 1504.39 167.561   1
  -2   0   5 5093.35 161.802  -2
   2  -2   3 5093.35 161.802   1
   2  -2   4 300.164 143.731   1
  -2   0   6 397.096 103.840  -2
   2  -2   4 397.096 103.840   1
   2  -2   5 6074.69 269.730   1
  -2   0   7 16651.9 337.538  -2
   2  -2   5 16651.9 337.538   1
  -2   0   8 512.653 135.589  -2
   2  -2   6 512.653 135.589   1
  -2   0   9 26170.0 429.781  -2
   2  -2   7 26170.0 429.781   1
  -2   0  10 510.598 137.350  -2
   2  -2   8 510.598 137.350   1
  -2   0  11 4977.40 213.968  -2
   2  -2   9 4977.40 213.968   1
  -2   0  12 2667.05 173.398  -2
   2  -2  10 2667.05 173.398   1
  -2   0  13 10781.4 685.241  -2
   2  -2  11 10781.4 685.241   1
  -2   0  14 338.049 383.492  -2
   2  -2  12 338.049 383.492   1
  -2   0  15 6793.38 626.945  -2
   2  -2  13 6793.38 626.945   1
  -2   0  16 1447.08 477.456  -2
   2  -2  14 1447.08 477.456   1
  -2   0  17 5902.41 686.456  -2
   2  -2  15 5902.41 686.456   1
  -2   0  18 1819.16 560.540  -2
   2  -2  16 1819.16 560.540   1
  -2   0  19 4386.75 676.778  -2
   2  -2  17 4386.75 676.778   1
   2  -2  18 291.365 424.850   1
  -2   1 -17 799.541 445.452  -2
   2  -1 -19 799.541 445.452   1
  -2   1 -16 5668.76 525.395  -2
   2  -1 -18 5668.76 525.395   1
  -2   1 -15 916.358 391.153  -2
   2  -1 -17 916.358 391.153   1
  -2   1 -14 6865.64 502.751  -2
   2  -1 -16 6865.64 502.751   1
  -2   1 -13 533.585 334.659  -2
   2  -1 -15 533.585 334.659   1
  -2   1 -12 5122.16 423.376  -2
   2  -1 -14 5122.16 423.376   1
  -2   1 -11 2241.16 346.395  -2
   2  -1 -13 2241.16 346.395   1
  -2   1 -10 6305.01 205.498  -2
   2  -1 -12 6305.01 205.498   1
  -2   1  -9 1743.01 147.622  -2
   2  -1 -11 1743.01 147.622   1
  -2   1  -8 16404.1 302.350  -2
   2  -1 -10 16404.1 302.350   1
  -2   1  -7 1735.97 112.044  -2
   2  -1  -9 1735.97 112.044   1
  -2   1  -6 13585.6 216.735  -2
   2  -1  -8 13585.6 216.735   1
  -2   1  -5 2763.59 124.287  -2
   2  -1  -7 2763.59 124.287   1
   2  -1  -6 5872.91 129.390   1
  -2   1  -4 10505.3 195.825  -2
   2  -1  -6 10505.3 195.825   1
   2  -1  -5 4.13458 86.6762   1
  -2   1  -3 2038.42 132.138  -2
   2  -1  -5 2038.42 132.138   1
   2  -1  -4 435.163 100.685   1
  -2   1  -2 1261.45 108.010  -2
   2  -1  -4 1261.45 108.010   1
   2  -1  -3 6887.26 153.411   1
  -2   1  -1 10267.0 172.022  -2
   2  -1  -3 10267.0 172.022   1
   2  -1  -2 14554.4 181.696   1
  -2   1   0 28842.9 414.367  -2
   2  -1  -2 28842.9 414.367   1
   2  -1  -1 2399.01 123.396   1
  -2   1   1 5232.03 286.841  -2
   2  -1  -1 5232.03 286.841   1
   2  -1   0 13402.0 231.605   1
   2  -1   1 3419.17 100.160   1
  -2   1   3 9370.21 267.346  -2
   2  -1   1 9370.21 267.346   1
   2  -1   2 762.387 74.7004   1
   2  -1   3 1840.36 155.398   1
  -2   1   5 1762.32 143.796  -2
   2  -1   3 1762.32 143.796   1
   2  -1   4 4319.73 235.627   1
  -2   1   6 10039.3 233.562  -2
   2  -1   4 10039.3 233.562   1
  -2   1   7 2735.46 153.388  -2
   2  -1   5 2735.46 153.388   1
  -2   1   8 13811.8 237.835  -2
   2  -1   6 13811.8 237.835   1
  -2   1   9 1588.48 119.176  -2
   2  -1   7 1588.48 119.176   1
  -2   1  10 16381.3 341.010  -2
   2  -1   8 16381.3 341.010   1
  -2   1  11 1907.14 158.953  -2
   2  -1   9 1907.14 158.953   1
  -2   1  12 5893.93 206.508  -2
   2  -1  10 5893.93 206.508   1
   2  -1  11 1567.48 109.780   1
  -2   1  13 2262.31 452.705  -2
   2  -1  11 2262.31 452.705   1
  -2   1  14 6731.11 609.935  -2
   2  -1  12 6731.11 609.935   1
  -2   1  15 1067.72 423.935  -2
   2  -1  13 1067.72 423.935   1
  -2   1  16 8340.58 707.040  -2
   2  -1  14 8340.58 707.040   1
  -2   1  17 573.886 475.011  -2
   2  -1  15 573.886 475.011   1
  -2   1  18 6809.60 738.899  -2
   2  -1  16 6809.60 738.899   1
  -2   1  19 629.524 521.344  -2
   2  -1  17 629.524 521.344   1
  -2   2 -17 3655.86 502.148  -2
   2   0 -19 3655.86 502.148   1
  -2   2 -16 1197.41 435.081  -2
   2   0 -18 1197.41 435.081   1
  -2   2 -15 5713.61 507.904  -2
   2   0 -17 5713.61 507.904   1
  -2   2 -14 813.043 360.959  -2
   2   0 -16 813.043 360.959   1
  -2   2 -13 6192.75 461.341  -2
   2   0 -15 6192.75 461.341   1
  -2   2 -12 109.439 298.214  -2
   2   0 -14 109.439 298.214   1
  -2   2 -11 8236.97 455.810  -2
   2   0 -13 8236.97 455.810   1
  -2   2 -10 2404.07 120.999  -2
   2   0 -12 2404.07 120.999   1
  -2   2  -9 4587.02 146.505  -2
   2   0 -11 4587.02 146.505   1
  -2   2  -8 591.148 85.0745  -2
   2   0 -10 591.148 85.0745   1
  -2   2  -7 26653.0 258.806  -2
   2   0  -9 26653.0 258.806   1
   2   0  -8 336.266 103.589   1
  -2   2  -6 548.362 99.2606  -2
   2   0  -8 548.362 99.2606   1
   2   0  -7 10578.6 213.839   1
  -2   2  -5 17185.4 250.519  -2
   2   0  -7 17185.4 250.519   1
   2   0  -6 15.4643 71.2674   1
  -2   2  -4 499.321 99.2591  -2
   2   0  -6 499.321 99.2591   1
   2   0  -5 3118.00 110.013   1
  -2   2  -3 5041.22 155.421  -2
   2   0  -5 5041.22 155.421   1
   2   0  -4 11468.1 156.642   1
  -2   2  -2 19929.8 221.679  -2
   2   0  -4 19929.8 221.679   1
   2   0  -3 5325.34 124.947   1
  -2   2  -1 15062.4 240.603  -2
   2   0  -3 15062.4 240.603   1
   2   0  -2 1592.40 85.3544   1
  -2   2   0 2418.91 190.836  -2
   2   0  -2 2418.91 190.836   1
   2   0  -1 8792.42 157.528   1
  -2   2   1 19076.8 436.878  -2
   2   0  -1 19076.8 436.878   1
   2   0   0 355.171 62.3523   1
  -2   2   2 759.390 98.1784  -2
   2   0   0 759.390 98.1784   1
   2   0   1 6255.04 276.756   1
  -2   2   3 18030.2 221.370  -2
   2   0   1 18030.2 221.370   1
   2   0   2 3273.75 224.668   1
  -2   2   4 5447.70 173.307  -2
   2   0   2 5447.70 173.307   1
   2   0   3 2386.86 193.345   1
  -2   2   5 4030.58 168.381  -2
   2   0   3 4030.58 168.381   1
  -2   2   6 1626.95 115.448  -2
   2   0   4 1626.95 115.448   1
  -2   2   7 21179.8 329.423  -2
   2   0   5 21179.8 329.423   1
  -2   2   8 283.122 113.303  -2
   2   0   6 283.122 113.303   1
  -2   2   9 18160.6 301.499  -2
   2   0   7 18160.6 301.499   1
  -2   2  10 2002.97 135.496  -2
   2   0   8 2002.97 135.496   1
  -2   2  11 8344.69 189.295  -2
   2   0   9 8344.69 189.295   1
  -2   2  12 1007.00 132.510  -2
   2   0  10 1007.00 132.510   1
  -2   2  13 8242.84 618.278  -2
   2   0  11 8242.84 618.278   1
  -2   2  14 1081.87 409.671  -2
   2   0  12 1081.87 409.671   1
  -2   2  15 6060.30 615.785  -2
   2   0  13 6060.30 615.785   1
  -2   2  16 315.684 435.694  -2
   2   0  14 315.684 435.694   1
  -2   2  17 8165.91 765.860  -2
   2   0  15 8165.91 765.860   1
  -2   2  18 1903.12 602.828  -2
   2   0  16 1903.12 602.828   1
  -2   2  19 3138.19 634.031  -2
   2   0  17 3138.19 634.031   1
  -2   3 -18 3862.28 528.830  -2
   2   1 -20 3862.28 528.830   1
  -2   3 -17 2247.21 459.327  -2
   2   1 -19 2247.21 459.327   1
  -2   3 -16 4267.07 480.379  -2
   2   1 -18 4267.07 480.379   1
  -2   3 -15 980.268 392.757  -2
   2   1 -17 980.268 392.757   1
  -2   3 -14 7682.08 510.281  -2
   2   1 -16 7682.08 510.281   1
  -2   3 -13 1170.71 331.578  -2
   2   1 -15 1170.71 331.578   1
  -2   3 -12 5055.81 395.965  -2
   2   1 -14 5055.81 395.965   1
   2   1 -13 84.1884 101.968   1
  -2   3 -11 879.834 286.256  -2
   2   1 -13 879.834 286.256   1
  -2   3 -10 5996.39 173.091  -2
   2   1 -12 5996.39 173.091   1
  -2   3  -9 4014.56 152.173  -2
   2   1 -11 4014.56 152.173   1
  -2   3  -8 6993.17 184.800  -2
   2   1 -10 6993.17 184.800   1
   2   1  -9 645.231 139.436   1
  -2   3  -7 5371.15 204.422  -2
   2   1  -9 5371.15 204.422   1
  -2   3  -6 10886.4 184.124  -2
   2   1  -8 10886.4 184.124   1
   2   1  -7 143.381 76.3496   1
  -2   3  -5 844.593 129.907  -2
   2   1  -7 844.593 129.907   1
   2   1  -6 7129.76 176.524   1
  -2   3  -4 12332.0 253.318  -2
   2   1  -6 12332.0 253.318   1
   2   1  -5 1835.81 105.984   1
  -2   3  -3 6550.91 190.614  -2
   2   1  -5 6550.91 190.614   1
   2   1  -4 1530.09 117.829   1
  -2   3  -2 3700.53 189.255  -2
   2   1  -4 3700.53 189.255   1
   2   1  -3 2547.71 145.733   1
  -2   3  -1 7857.78 186.407  -2
   2   1  -3 7857.78 186.407   1
   2   1  -2 10669.2 235.905   1
  -2   3   0 23978.3 462.106  -2
   2   1  -2 23978.3 462.106   1
   2   1  -1 7129.70 148.098   1
  -2   3   1 17832.5 444.262  -2
   2   1  -1 17832.5 444.262   1
   2   1   0 15657.9 255.744   1
  -2   3   2 24450.9 448.555  -2
   2   1   0 24450.9 448.555   1
   2   1   1 7129.81 306.818   1
  -2   3   3 12321.4 244.677  -2
   2   1   1 12321.4 244.677   1
   2   1   2 1694.17 190.539   1
  -2   3   4 6085.98 201.454  -2
   2   1   2 6085.98 201.454   1
  -2   3   5 3584.10 146.936  -2
   2   1   3 3584.10 146.936   1
  -2   3   6 6238.95 215.859  -2
   2   1   4 6238.95 215.859   1
  -2   3   7 4158.36 184.836  -2
   2   1   5 4158.36 184.836   1
  -2   3   8 16433.0 310.914  -2
   2   1   6 16433.0 310.914   1
  -2   3   9 1216.24 135.632  -2
   2   1   7 1216.24 135.632   1
  -2   3  10 19216.7 326.777  -2
   2   1   8 19216.7 326.777   1
  -2   3  11 1029.70 127.402  -2
   2   1   9 1029.70 127.402   1
  -2   3  12 7693.52 291.421  -2
   2   1  10 7693.52 291.421   1
  -2   3  13 1658.47 408.772  -2
   2   1  11 1658.47 408.772   1
  -2   3  14 6089.89 619.668  -2
   2   1  12 6089.89 619.668   1
  -2   3  15-59.6254 411.579  -2
   2   1  13-59.6254 411.579   1
  -2   3  16 6206.68 672.693  -2
   2   1  14 6206.68 672.693   1
  -2   3  17 851.893 482.500  -2
   2   1  15 851.893 482.500   1
  -2   3  18 4178.36 673.221  -2
   2   1  16 4178.36 673.221   1
   2   1  17 695.165 391.154   1
  -2   4 -18 532.975 417.583  -2
   2   2 -20 532.975 417.583   1
  -2   4 -17 3264.91 499.043  -2
   2   2 -19 3264.91 499.043   1
  -2   4 -16 1634.45 408.253  -2
   2   2 -18 1634.45 408.253   1
  -2   4 -15 7528.14 524.141  -2
   2   2 -17 7528.14 524.141   1
  -2   4 -14 1989.55 374.467  -2
   2   2 -16 1989.55 374.467   1
  -2   4 -13 7405.50 473.442  -2
   2   2 -15 7405.50 473.442   1
   2   2 -14 722.826 135.824   1
  -2   4 -12 1204.38 300.035  -2
   2   2 -14 1204.38 300.035   1
  -2   4 -11 8135.11 268.315  -2
   2   2 -13 8135.11 268.315   1
  -2   4 -10 1394.84 168.162  -2
   2   2 -12 1394.84 168.162   1
  -2   4  -9 12516.3 308.117  -2
   2   2 -11 12516.3 308.117   1
  -2   4  -8 8420.85 258.729  -2
   2   2 -10 8420.85 258.729   1
  -2   4  -7 13335.0 415.527  -2
   2   2  -9 13335.0 415.527   1
  -2   4  -6 4138.02 209.543  -2
   2   2  -8 4138.02 209.543   1
  -2   4  -5 19864.4 340.522  -2
   2   2  -7 19864.4 340.522   1
   2   2  -6 2100.63 156.121   1
  -2   4  -4 5569.95 234.677  -2
   2   2  -6 5569.95 234.677   1
   2   2  -5 16201.7 506.367   1
  -2   4  -3 38676.3 382.888  -2
   2   2  -5 38676.3 382.888   1
   2   2  -4 4661.45 188.899   1
  -2   4  -2 7345.69 227.281  -2
   2   2  -4 7345.69 227.281   1
   2   2  -3 1532.10 135.877   1
   2   2  -2 5629.83 259.067   1
  -2   4   0 7795.53 179.177  -2
   2   2  -2 7795.53 179.177   1
   2   2  -1 5766.09 187.552   1
  -2   4   1 14564.8 312.739  -2
   2   2  -1 14564.8 312.739   1
  -2   4   2 803.350 104.489  -2
   2   2   0 803.350 104.489   1
  -2   4   3 36893.7 368.479  -2
   2   2   1 36893.7 368.479   1
   2   2   2 1177.64 157.351   1
  -2   4   4 1441.74 246.353  -2
   2   2   2 1441.74 246.353   1
  -2   4   5 2667.17 317.629  -2
   2   2   3 2667.17 317.629   1
  -2   4   7 9633.74 387.380  -2
   2   2   5 9633.74 387.380   1
  -2   4   8 864.033 200.955  -2
   2   2   6 864.033 200.955   1
  -2   4   9 14477.8 448.581  -2
   2   2   7 14477.8 448.581   1
  -2   4  10 1793.21 226.213  -2
   2   2   8 1793.21 226.213   1
  -2   4  11 7473.53 332.086  -2
   2   2   9 7473.53 332.086   1
  -2   4  12 5058.60 276.321  -2
   2   2  10 5058.60 276.321   1
  -2   4  14 1452.49 432.237  -2
   2   2  12 1452.49 432.237   1
  -2   4  15 5070.07 597.718  -2
   2   2  13 5070.07 597.718   1
  -2   4  16 459.277 463.919  -2
   2   2  14 459.277 463.919   1
  -2   4  17 6254.71 704.599  -2
   2   2  15 6254.71 704.599   1
  -2   4  18 448.643 553.319  -2
   2   2  16 448.643 553.319   1
  -2   5 -18 1208.03 434.879  -2
   2   3 -20 1208.03 434.879   1
  -2   5 -17 1231.22 430.582  -2
   2   3 -19 1231.22 430.582   1
  -2   5 -16 4757.25 483.976  -2
   2   3 -18 4757.25 483.976   1
  -2   5 -15 2201.49 386.118  -2
   2   3 -17 2201.49 386.118   1
  -2   5 -14 10031.6 553.863  -2
   2   3 -16 10031.6 553.863   1
  -2   5 -13 2052.89 352.525  -2
   2   3 -15 2052.89 352.525   1
   2   3 -14 1239.96 191.311   1
  -2   5 -12 3060.79 348.019  -2
   2   3 -14 3060.79 348.019   1
  -2   5 -11 1586.67 187.046  -2
   2   3 -13 1586.67 187.046   1
  -2   5 -10 4528.77 231.254  -2
   2   3 -12 4528.77 231.254   1
  -2   5  -9 1971.80 264.340  -2
   2   3 -11 1971.80 264.340   1
  -2   5  -8 4805.93 247.073  -2
   2   3 -10 4805.93 247.073   1
  -2   5  -7 4584.48 274.438  -2
   2   3  -9 4584.48 274.438   1
  -2   5  -6 11077.5 344.672  -2
   2   3  -8 11077.5 344.672   1
  -2   5  -5 4814.92 200.160  -2
   2   3  -7 4814.92 200.160   1
   2   3  -6 3138.74 294.283   1
  -2   5  -4 4750.14 213.059  -2
   2   3  -6 4750.14 213.059   1
   2   3  -5 1567.93 232.682   1
  -2   5  -3 3876.36 187.017  -2
   2   3  -5 3876.36 187.017   1
  -2   5  -2 1007.21 167.670  -2
   2   3  -4 1007.21 167.670   1
  -2   5  -1 722.511 150.694  -2
   2   3  -3 722.511 150.694   1
  -2   5   0 2495.44 274.807  -2
   2   3  -2 2495.44 274.807   1
   2   3  -1 96.0172 146.710   1
  -2   5   1 545.105 128.529  -2
   2   3  -1 545.105 128.529   1
  -2   5   2 14180.4 308.842  -2
   2   3   0 14180.4 308.842   1
  -2   5   3 1239.12 163.172  -2
   2   3   1 1239.12 163.172   1
  -2   5   4 17737.7 394.179  -2
   2   3   2 17737.7 394.179   1
  -2   5   5 993.739 278.726  -2
   2   3   3 993.739 278.726   1
  -2   5   6 2958.27 360.498  -2
   2   3   4 2958.27 360.498   1
  -2   5   7 243.157 305.497  -2
   2   3   5 243.157 305.497   1
  -2   5  10 18981.6 541.782  -2
   2   3   8 18981.6 541.782   1
  -2   5  11 569.168 215.501  -2
   2   3   9 569.168 215.501   1
  -2   5  15 27.4320 452.926  -2
   2   3  13 27.4320 452.926   1
  -2   5  16 5514.42 675.607  -2
   2   3  14 5514.42 675.607   1
  -2   5  17 299.786 457.627  -2
   2   3  15 299.786 457.627   1
  -2   6 -18 1029.93 437.780  -2
   2   4 -20 1029.93 437.780   1
  -2   6 -17 2214.83 427.823  -2
   2   4 -19 2214.83 427.823   1
  -2   6 -16 456.285 371.086  -2
   2   4 -18 456.285 371.086   1
  -2   6 -15 4255.19 451.561  -2
   2   4 -17 4255.19 451.561   1
  -2   6 -14 1736.30 348.447  -2
   2   4 -16 1736.30 348.447   1
  -2   6 -13 11067.7 525.644  -2
   2   4 -15 11067.7 525.644   1
  -2   6 -12 2408.43 326.945  -2
   2   4 -14 2408.43 326.945   1
  -2   6 -11 3354.47 321.888  -2
   2   4 -13 3354.47 321.888   1
  -2   6 -10 583.667 197.674  -2
   2   4 -12 583.667 197.674   1
  -2   6  -9 5288.80 273.798  -2
   2   4 -11 5288.80 273.798   1
  -2   6  -8 2974.55 220.618  -2
   2   4 -10 2974.55 220.618   1
  -2   6  -7 16859.5 369.586  -2
   2   4  -9 16859.5 369.586   1
  -2   6  -6 2497.40 207.326  -2
   2   4  -8 2497.40 207.326   1
  -2   6  -5 3861.32 209.090  -2
   2   4  -7 3861.32 209.090   1
  -2   6  -4 5392.74 193.342  -2
   2   4  -6 5392.74 193.342   1
  -2   6  -3 10976.7 324.696  -2
   2   4  -5 10976.7 324.696   1
  -2   6  -2 994.806 168.795  -2
   2   4  -4 994.806 168.795   1
  -2   6  -1 9902.96 276.555  -2
   2   4  -3 9902.96 276.555   1
  -2   6   0 4070.58 345.211  -2
   2   4  -2 4070.58 345.211   1
  -2   6   1 14552.8 341.756  -2
   2   4  -1 14552.8 341.756   1
  -2   6   2 2301.58 194.397  -2
   2   4   0 2301.58 194.397   1
   2   4   1 6073.59 383.672   1
  -2   6   3 11134.5 452.019  -2
   2   4   1 11134.5 452.019   1
  -2   6   4 5609.24 381.981  -2
   2   4   2 5609.24 381.981   1
  -2   6   5 7631.07 458.727  -2
   2   4   3 7631.07 458.727   1
  -2   6   6 2411.36 359.669  -2
   2   4   4 2411.36 359.669   1
  -2   6   7 12327.4 644.505  -2
   2   4   5 12327.4 644.505   1
  -2   6   8 602.233 387.009  -2
   2   4   6 602.233 387.009   1
  -2   6  11 9647.93 431.897  -2
   2   4   9 9647.93 431.897   1
  -2   6  16-108.302 528.738  -2
   2   4  14-108.302 528.738   1
   2   4  15 2560.93 516.422   1
  -2   7 -18 1636.95 431.033  -2
   2   5 -20 1636.95 431.033   1
  -2   7 -17 616.123 388.832  -2
   2   5 -19 616.123 388.832   1
  -2   7 -16 2584.25 416.980  -2
   2   5 -18 2584.25 416.980   1
  -2   7 -15 1883.64 365.574  -2
   2   5 -17 1883.64 365.574   1
  -2   7 -14 6271.44 451.773  -2
   2   5 -16 6271.44 451.773   1
  -2   7 -13 5130.61 397.582  -2
   2   5 -15 5130.61 397.582   1
  -2   7 -12 6306.92 405.540  -2
   2   5 -14 6306.92 405.540   1
  -2   7 -11 662.019 213.299  -2
   2   5 -13 662.019 213.299   1
  -2   7 -10 2894.79 247.473  -2
   2   5 -12 2894.79 247.473   1
  -2   7  -9 941.529 192.732  -2
   2   5 -11 941.529 192.732   1
  -2   7  -8 3133.05 219.541  -2
   2   5 -10 3133.05 219.541   1
  -2   7  -7 2455.87 188.932  -2
   2   5  -9 2455.87 188.932   1
  -2   7  -6 12017.1 290.845  -2
   2   5  -8 12017.1 290.845   1
  -2   7  -5 1499.88 166.257  -2
   2   5  -7 1499.88 166.257   1
  -2   7  -4 8770.86 384.863  -2
   2   5  -6 8770.86 384.863   1
  -2   7  -3 5594.34 307.574  -2
   2   5  -5 5594.34 307.574   1
  -2   7  -2 5398.05 283.829  -2
   2   5  -4 5398.05 283.829   1
  -2   7   1 3459.33 298.237  -2
   2   5  -1 3459.33 298.237   1
  -2   7   2 6542.41 386.434  -2
   2   5   0 6542.41 386.434   1
  -2   7   3 373.588 248.203  -2
   2   5   1 373.588 248.203   1
  -2   7   4 19694.1 481.813  -2
   2   5   2 19694.1 481.813   1
  -2   7   5 2111.82 253.080  -2
   2   5   3 2111.82 253.080   1
  -2   7   6 4211.59 319.941  -2
   2   5   4 4211.59 319.941   1
  -2   7   7 549.390 352.179  -2
   2   5   5 549.390 352.179   1
  -2   7   8 6317.57 582.153  -2
   2   5   6 6317.57 582.153   1
  -2   7   9 755.160 428.096  -2
   2   5   7 755.160 428.096   1
  -2   8 -17 2381.79 415.677  -2
   2   6 -19 2381.79 415.677   1
  -2   8 -16 745.255 355.120  -2
   2   6 -18 745.255 355.120   1
  -2   8 -15 2803.09 390.593  -2
   2   6 -17 2803.09 390.593   1
  -2   8 -14 1547.57 330.772  -2
   2   6 -16 1547.57 330.772   1
  -2   8 -13 8577.34 455.838  -2
   2   6 -15 8577.34 455.838   1
  -2   8 -12 2262.98 267.818  -2
   2   6 -14 2262.98 267.818   1
  -2   8 -11 3524.99 268.676  -2
   2   6 -13 3524.99 268.676   1
  -2   8 -10 568.221 195.143  -2
   2   6 -12 568.221 195.143   1
  -2   8  -9 5025.26 264.187  -2
   2   6 -11 5025.26 264.187   1
  -2   8  -8 1757.31 185.034  -2
   2   6 -10 1757.31 185.034   1
  -2   8  -7 4318.33 213.215  -2
   2   6  -9 4318.33 213.215   1
  -2   8  -6 3666.08 190.418  -2
   2   6  -8 3666.08 190.418   1
  -2   8  -5 9124.21 348.699  -2
   2   6  -7 9124.21 348.699   1
  -2   8  -4 1432.15 229.530  -2
   2   6  -6 1432.15 229.530   1
  -2   8  -3 8179.45 339.915  -2
   2   6  -5 8179.45 339.915   1
  -2   8   1 10649.0 494.692  -2
   2   6  -1 10649.0 494.692   1
  -2   8   2 1897.81 232.027  -2
   2   6   0 1897.81 232.027   1
  -2   8   3 10766.0 390.165  -2
   2   6   1 10766.0 390.165   1
  -2   8   4 1275.50 251.001  -2
   2   6   2 1275.50 251.001   1
  -2   8   5 7317.56 374.857  -2
   2   6   3 7317.56 374.857   1
  -2   8   6 956.857 260.628  -2
   2   6   4 956.857 260.628   1
  -2   8   7 3893.03 346.159  -2
   2   6   5 3893.03 346.159   1
  -2   8   8 631.295 404.026  -2
   2   6   6 631.295 404.026   1
  -2   8   9 8414.53 672.034  -2
   2   6   7 8414.53 672.034   1
  -2   8  10 944.852 478.535  -2
   2   6   8 944.852 478.535   1
  -2   9 -17 627.416 577.875  -2
   2   7 -19 627.416 577.875   1
  -2   9 -16 1923.00 373.544  -2
   2   7 -18 1923.00 373.544   1
  -2   9 -15 1611.95 353.314  -2
   2   7 -17 1611.95 353.314   1
  -2   9 -14 3042.79 362.699  -2
   2   7 -16 3042.79 362.699   1
  -2   9 -13 2690.67 287.325  -2
   2   7 -15 2690.67 287.325   1
  -2   9 -12 6695.60 345.332  -2
   2   7 -14 6695.60 345.332   1
  -2   9 -11 1623.94 232.326  -2
   2   7 -13 1623.94 232.326   1
  -2   9 -10 2219.31 227.123  -2
   2   7 -12 2219.31 227.123   1
  -2   9  -9 3361.31 230.727  -2
   2   7 -11 3361.31 230.727   1
  -2   9  -8 1638.28 183.633  -2
   2   7 -10 1638.28 183.633   1
  -2   9  -7 759.969 145.955  -2
   2   7  -9 759.969 145.955   1
  -2   9  -6 10490.7 396.525  -2
   2   7  -8 10490.7 396.525   1
  -2   9  -5 2333.61 237.995  -2
   2   7  -7 2333.61 237.995   1
  -2   9  -4 2783.39 227.725  -2
   2   7  -6 2783.39 227.725   1
  -2   9  -3 1906.00 196.288  -2
   2   7  -5 1906.00 196.288   1
  -2   9  -2 6915.63 561.194  -2
   2   7  -4 6915.63 561.194   1
  -2   9  -1 574.088 343.743  -2
   2   7  -3 574.088 343.743   1
  -2   9   0 2360.75 396.685  -2
   2   7  -2 2360.75 396.685   1
  -2   9   1 1522.68 252.915  -2
   2   7  -1 1522.68 252.915   1
  -2   9   2 6997.73 362.441  -2
   2   7   0 6997.73 362.441   1
  -2   9   3 1686.11 258.632  -2
   2   7   1 1686.11 258.632   1
  -2   9   4 9083.48 420.668  -2
   2   7   2 9083.48 420.668   1
  -2   9   5 2242.89 300.184  -2
   2   7   3 2242.89 300.184   1
  -2   9   6 3721.72 346.171  -2
   2   7   4 3721.72 346.171   1
  -2   9   7 366.080 279.504  -2
   2   7   5 366.080 279.504   1
  -2   9   8 5477.78 420.535  -2
   2   7   6 5477.78 420.535   1
  -2   9   9 759.447 326.267  -2
   2   7   7 759.447 326.267   1
  -2   9  10 7887.79 727.185  -2
   2   7   8 7887.79 727.185   1
  -2  10 -17 1037.62 586.656  -2
   2   8 -19 1037.62 586.656   1
  -2  10 -16 1644.37 580.682  -2
   2   8 -18 1644.37 580.682   1
  -2  10 -15 2068.49 548.584  -2
   2   8 -17 2068.49 548.584   1
  -2  10 -14 1172.00 372.429  -2
   2   8 -16 1172.00 372.429   1
  -2  10 -13 4931.75 462.687  -2
   2   8 -15 4931.75 462.687   1
  -2  10 -12 3466.95 397.588  -2
   2   8 -14 3466.95 397.588   1
  -2  10 -11 3733.00 384.513  -2
   2   8 -13 3733.00 384.513   1
   2   8 -12 767.845 200.479   1
  -2  10 -10 1546.93 295.705  -2
   2   8 -12 1546.93 295.705   1
  -2  10  -9 2786.75 314.318  -2
   2   8 -11 2786.75 314.318   1
  -2  10  -8 1021.69 159.251  -2
   2   8 -10 1021.69 159.251   1
  -2  10  -7 2557.36 277.425  -2
   2   8  -9 2557.36 277.425   1
  -2  10  -6 1823.97 247.335  -2
   2   8  -8 1823.97 247.335   1
  -2  10  -5 5716.83 303.525  -2
   2   8  -7 5716.83 303.525   1
  -2  10  -4 2120.43 213.035  -2
   2   8  -6 2120.43 213.035   1
  -2  10  -3 2287.70 476.572  -2
   2   8  -5 2287.70 476.572   1
  -2  10  -2 1347.96 425.906  -2
   2   8  -4 1347.96 425.906   1
  -2  10  -1 5137.79 538.793  -2
   2   8  -3 5137.79 538.793   1
  -2  10   0 1055.08 259.050  -2
   2   8  -2 1055.08 259.050   1
  -2  10   1 6429.71 366.826  -2
   2   8  -1 6429.71 366.826   1
  -2  10   2 575.790 247.868  -2
   2   8   0 575.790 247.868   1
  -2  10   3 4207.77 344.807  -2
   2   8   1 4207.77 344.807   1
  -2  10   4 2252.97 311.959  -2
   2   8   2 2252.97 311.959   1
  -2  10   5 9588.79 472.084  -2
   2   8   3 9588.79 472.084   1
  -2  10   6 663.660 302.942  -2
   2   8   4 663.660 302.942   1
  -2  10   7 5504.13 425.841  -2
   2   8   5 5504.13 425.841   1
  -2  10   8 270.590 319.859  -2
   2   8   6 270.590 319.859   1
  -2  10   9 4344.69 439.852  -2
   2   8   7 4344.69 439.852   1
  -2  10  10 879.045 389.010  -2
   2   8   8 879.045 389.010   1
  -2  10  11 6467.50 542.438  -2
   2   8   9 6467.50 542.438   1
  -2  10  12 619.491 556.885  -2
   2   8  10 619.491 556.885   1
   2   8  11 1923.40 533.955   1
  -2  11 -16 1309.74 562.813  -2
   2   9 -18 1309.74 562.813   1
  -2  11 -15 1241.93 411.692  -2
   2   9 -17 1241.93 411.692   1
  -2  11 -14 1757.36 401.135  -2
   2   9 -16 1757.36 401.135   1
  -2  11 -13 1486.83 370.283  -2
   2   9 -15 1486.83 370.283   1
  -2  11 -12 5758.20 468.360  -2
   2   9 -14 5758.20 468.360   1
  -2  11 -11 1832.70 348.323  -2
   2   9 -13 1832.70 348.323   1
  -2  11 -10 1837.18 302.932  -2
   2   9 -12 1837.18 302.932   1
  -2  11  -9 552.157 258.454  -2
   2   9 -11 552.157 258.454   1
  -2  11  -8 1564.22 270.658  -2
   2   9 -10 1564.22 270.658   1
  -2  11  -7 398.598 225.031  -2
   2   9  -9 398.598 225.031   1
  -2  11  -6 3314.74 277.860  -2
   2   9  -8 3314.74 277.860   1
  -2  11  -5 3484.54 256.807  -2
   2   9  -7 3484.54 256.807   1
  -2  11  -4 8023.22 745.809  -2
   2   9  -6 8023.22 745.809   1
  -2  11  -3 1465.40 480.244  -2
   2   9  -5 1465.40 480.244   1
  -2  11  -2 3930.39 551.454  -2
   2   9  -4 3930.39 551.454   1
  -2  11  -1 819.014 427.726  -2
   2   9  -3 819.014 427.726   1
  -2  11   0 2077.22 303.648  -2
   2   9  -2 2077.22 303.648   1
  -2  11   1 1568.30 297.509  -2
   2   9  -1 1568.30 297.509   1
  -2  11   2 6062.73 397.005  -2
   2   9   0 6062.73 397.005   1
  -2  11   3 884.985 281.317  -2
   2   9   1 884.985 281.317   1
  -2  11   4 7816.66 458.057  -2
   2   9   2 7816.66 458.057   1
  -2  11   5 1731.31 327.851  -2
   2   9   3 1731.31 327.851   1
  -2  11   6 4958.20 429.088  -2
   2   9   4 4958.20 429.088   1
  -2  11   7 368.369 334.266  -2
   2   9   5 368.369 334.266   1
  -2  11   8 3786.27 439.120  -2
   2   9   6 3786.27 439.120   1
  -2  11   9-101.124 363.891  -2
   2   9   7-101.124 363.891   1
  -2  11  10 3450.18 471.140  -2
   2   9   8 3450.18 471.140   1
  -2  11  11 532.569 328.037  -2
   2   9   9 532.569 328.037   1
  -2  12 -15 1992.86 433.347  -2
   2  10 -17 1992.86 433.347   1
  -2  12 -14 1814.10 402.759  -2
   2  10 -16 1814.10 402.759   1
  -2  12 -13 1939.28 381.629  -2
   2  10 -15 1939.28 381.629   1
  -2  12 -12 1871.55 367.604  -2
   2  10 -14 1871.55 367.604   1
  -2  12 -11 3466.27 390.608  -2
   2  10 -13 3466.27 390.608   1
  -2  12 -10 1869.37 612.228  -2
   2  10 -12 1869.37 612.228   1
  -2  12  -9 3175.29 658.817  -2
   2  10 -11 3175.29 658.817   1
  -2  12  -8 41.4534 507.292  -2
   2  10 -10 41.4534 507.292   1
  -2  12  -7 839.423 512.451  -2
   2  10  -9 839.423 512.451   1
  -2  12  -6 1210.29 538.166  -2
   2  10  -8 1210.29 538.166   1
  -2  12  -5 5016.44 687.557  -2
   2  10  -7 5016.44 687.557   1
  -2  12  -4 1738.26 532.663  -2
   2  10  -6 1738.26 532.663   1
  -2  12  -3 1965.90 527.862  -2
   2  10  -5 1965.90 527.862   1
  -2  12  -2 237.290 439.502  -2
   2  10  -4 237.290 439.502   1
  -2  12  -1 1190.74 471.180  -2
   2  10  -3 1190.74 471.180   1
  -2  12   0 1178.27 306.139  -2
   2  10  -2 1178.27 306.139   1
  -2  12   1 3405.25 365.443  -2
   2  10  -1 3405.25 365.443   1
  -2  12   2 1873.14 335.909  -2
   2  10   0 1873.14 335.909   1
  -2  12   3 4492.51 411.055  -2
   2  10   1 4492.51 411.055   1
  -2  12   4 698.929 328.746  -2
   2  10   2 698.929 328.746   1
  -2  12   5 3341.21 407.204  -2
   2  10   3 3341.21 407.204   1
  -2  12   6 689.837 363.977  -2
   2  10   4 689.837 363.977   1
  -2  12   7 2126.21 409.479  -2
   2  10   5 2126.21 409.479   1
  -2  12   8 483.022 395.703  -2
   2  10   6 483.022 395.703   1
  -2  12   9 4551.84 507.466  -2
   2  10   7 4551.84 507.466   1
  -2  12  10 840.137 442.263  -2
   2  10   8 840.137 442.263   1
  -2  13 -14 1236.42 632.623  -2
   2  11 -16 1236.42 632.623   1
  -2  13 -13 1165.36 682.144  -2
   2  11 -15 1165.36 682.144   1
  -2  13 -12 2434.85 679.742  -2
   2  11 -14 2434.85 679.742   1
  -2  13 -11 1681.47 623.604  -2
   2  11 -13 1681.47 623.604   1
  -2  13 -10 2001.08 622.002  -2
   2  11 -12 2001.08 622.002   1
  -2  13  -9 1613.87 621.726  -2
   2  11 -11 1613.87 621.726   1
  -2  13  -8 2114.29 645.356  -2
   2  11 -10 2114.29 645.356   1
  -2  13  -7 489.745 551.844  -2
   2  11  -9 489.745 551.844   1
  -2  13  -6 753.245 560.898  -2
   2  11  -8 753.245 560.898   1
  -2  13  -5 1201.16 566.757  -2
   2  11  -7 1201.16 566.757   1
  -2  13  -4 2944.77 629.796  -2
   2  11  -6 2944.77 629.796   1
  -2  13  -3 958.981 543.067  -2
   2  11  -5 958.981 543.067   1
  -2  13  -2 4678.06 684.119  -2
   2  11  -4 4678.06 684.119   1
  -2  13  -1 1204.77 341.361  -2
   2  11  -3 1204.77 341.361   1
  -2  13   0 1355.08 355.671  -2
   2  11  -2 1355.08 355.671   1
  -2  13   1 510.376 330.218  -2
   2  11  -1 510.376 330.218   1
  -2  13   2 3424.18 425.257  -2
   2  11   0 3424.18 425.257   1
  -2  13   3 854.934 354.301  -2
   2  11   1 854.934 354.301   1
  -2  13   4 5199.56 474.428  -2
   2  11   2 5199.56 474.428   1
  -2  13   5 1353.77 390.289  -2
   2  11   3 1353.77 390.289   1
  -2  13   6 6251.12 528.581  -2
   2  11   4 6251.12 528.581   1
  -2  13   7 522.471 403.186  -2
   2  11   5 522.471 403.186   1
  -2  13   8 3352.45 501.061  -2
   2  11   6 3352.45 501.061   1
  -2  14 -13 1411.52 664.581  -2
   2  12 -15 1411.52 664.581   1
  -2  14 -12 1193.95 669.517  -2
   2  12 -14 1193.95 669.517   1
  -2  14 -11 1919.56 691.393  -2
   2  12 -13 1919.56 691.393   1
  -2  14 -10 1057.89 612.467  -2
   2  12 -12 1057.89 612.467   1
  -2  14  -9 1259.08 621.151  -2
   2  12 -11 1259.08 621.151   1
  -2  14  -8 797.838 620.238  -2
   2  12 -10 797.838 620.238   1
  -2  14  -7 1990.40 701.316  -2
   2  12  -9 1990.40 701.316   1
  -2  14  -6 366.997 619.864  -2
   2  12  -8 366.997 619.864   1
  -2  14  -5 2370.10 694.680  -2
   2  12  -7 2370.10 694.680   1
  -2  14  -4 1030.51 623.779  -2
   2  12  -6 1030.51 623.779   1
  -2  14  -3 994.162 588.629  -2
   2  12  -5 994.162 588.629   1
  -2  14  -2 500.376 560.311  -2
   2  12  -4 500.376 560.311   1
  -2  14  -1 2791.04 432.535  -2
   2  12  -3 2791.04 432.535   1
  -2  14   0 1331.19 403.455  -2
   2  12  -2 1331.19 403.455   1
  -2  14   1 1401.82 389.708  -2
   2  12  -1 1401.82 389.708   1
  -2  14   2 808.844 371.484  -2
   2  12   0 808.844 371.484   1
  -2  14   3 3530.83 461.172  -2
   2  12   1 3530.83 461.172   1
  -2  14   4 889.057 401.284  -2
   2  12   2 889.057 401.284   1
  -2  14   5 4039.49 496.221  -2
   2  12   3 4039.49 496.221   1
  -2  14   6 960.016 447.543  -2
   2  12   4 960.016 447.543   1
   2  13 -13 1367.13 532.758   1
  -2  15 -10 1826.55 726.209  -2
   2  13 -12 1826.55 726.209   1
  -2  15  -9 1385.77 660.852  -2
   2  13 -11 1385.77 660.852   1
  -2  15  -8 1525.24 670.186  -2
   2  13 -10 1525.24 670.186   1
  -2  15  -7 447.143 663.975  -2
   2  13  -9 447.143 663.975   1
  -2  15  -6 318.470 665.544  -2
   2  13  -8 318.470 665.544   1
  -2  15  -5 1373.94 678.093  -2
   2  13  -7 1373.94 678.093   1
  -2  15  -4 2753.43 734.335  -2
   2  13  -6 2753.43 734.335   1
  -2  15  -3 771.864 616.551  -2
   2  13  -5 771.864 616.551   1
  -2  15  -2 1196.86 410.997  -2
   2  13  -4 1196.86 410.997   1
  -2  15  -1 486.591 376.186  -2
   2  13  -3 486.591 376.186   1
  -2  15   0 1681.76 426.651  -2
   2  13  -2 1681.76 426.651   1
  -2  15   1 918.076 401.332  -2
   2  13  -1 918.076 401.332   1
  -2  15   2 1997.51 447.675  -2
   2  13   0 1997.51 447.675   1
  -2  15   3 372.045 426.593  -2
   2  13   1 372.045 426.593   1
   2  14  -9 133.337 529.464   1
  -2  16  -6 357.651 733.024  -2
   2  14  -8 357.651 733.024   1
  -2  16  -5 822.995 740.698  -2
   2  14  -7 822.995 740.698   1
  -2  16  -4 679.281 727.937  -2
   2  14  -6 679.281 727.937   1
  -2  16  -3 2153.19 492.219  -2
   2  14  -5 2153.19 492.219   1
  -2  16  -2 624.166 433.663  -2
   2  14  -4 624.166 433.663   1
   2  14  -3 693.312 326.509   1
  -3 -13   4 2316.17 675.003  -2
   3 -16   1 2316.17 675.003   1
  -3 -13   5 1734.70 361.463  -2
   3 -16   2 1734.70 361.463   1
  -3 -13   6 2207.24 377.327  -2
   3 -16   3 2207.24 377.327   1
  -3 -13   7 859.094 352.277  -2
   3 -16   4 859.094 352.277   1
  -3 -13   8 2106.78 377.900  -2
   3 -16   5 2106.78 377.900   1
  -3 -13   9 1193.57 667.260  -2
   3 -16   6 1193.57 667.260   1
  -3 -12   0 1472.91 445.773  -2
   3 -15  -3 1472.91 445.773   1
  -3 -12   1 2830.66 366.880  -2
   3 -15  -2 2830.66 366.880   1
  -3 -12   2 2023.10 343.116  -2
   3 -15  -1 2023.10 343.116   1
  -3 -12   3 2320.95 344.526  -2
   3 -15   0 2320.95 344.526   1
  -3 -12   4 1531.71 336.268  -2
   3 -15   1 1531.71 336.268   1
  -3 -12   5 4218.76 385.539  -2
   3 -15   2 4218.76 385.539   1
  -3 -12   6 3007.51 364.954  -2
   3 -15   3 3007.51 364.954   1
  -3 -12   7 3828.75 383.193  -2
   3 -15   4 3828.75 383.193   1
  -3 -12   8 2311.95 364.294  -2
   3 -15   5 2311.95 364.294   1
  -3 -12   9 2089.79 362.143  -2
   3 -15   6 2089.79 362.143   1
  -3 -12  10 1432.96 361.231  -2
   3 -15   7 1432.96 361.231   1
  -3 -12  11 2687.94 383.011  -2
   3 -15   8 2687.94 383.011   1
  -3 -12  12 1694.22 373.705  -2
   3 -15   9 1694.22 373.705   1
  -3 -12  13 2466.81 396.806  -2
   3 -15  10 2466.81 396.806   1
  -3 -11  -3 1178.63 404.934  -2
   3 -14  -6 1178.63 404.934   1
   3 -14  -5 3038.83 547.927   1
  -3 -11  -2 3649.04 638.194  -2
   3 -14  -5 3649.04 638.194   1
  -3 -11  -1 2716.91 438.058  -2
   3 -14  -4 2716.91 438.058   1
  -3 -11   0 3964.56 353.098  -2
   3 -14  -3 3964.56 353.098   1
  -3 -11   1 1677.02 315.435  -2
   3 -14  -2 1677.02 315.435   1
  -3 -11   2 1535.87 310.197  -2
   3 -14  -1 1535.87 310.197   1
  -3 -11   3 1348.28 307.582  -2
   3 -14   0 1348.28 307.582   1
  -3 -11   4 1891.43 315.841  -2
   3 -14   1 1891.43 315.841   1
  -3 -11   5 3117.12 338.423  -2
   3 -14   2 3117.12 338.423   1
  -3 -11   6 5812.59 397.016  -2
   3 -14   3 5812.59 397.016   1
  -3 -11   7 1903.49 326.396  -2
   3 -14   4 1903.49 326.396   1
  -3 -11   8 2676.10 351.566  -2
   3 -14   5 2676.10 351.566   1
  -3 -11   9 1535.30 334.676  -2
   3 -14   6 1535.30 334.676   1
  -3 -11  10 1973.34 351.516  -2
   3 -14   7 1973.34 351.516   1
  -3 -11  11 1465.15 342.448  -2
   3 -14   8 1465.15 342.448   1
  -3 -11  12 2689.34 375.584  -2
   3 -14   9 2689.34 375.584   1
  -3 -11  13 1851.09 359.491  -2
   3 -14  10 1851.09 359.491   1
  -3 -11  14 2945.26 383.116  -2
   3 -14  11 2945.26 383.116   1
  -3 -11  15 2256.36 387.108  -2
   3 -14  12 2256.36 387.108   1
  -3 -10  -5 2665.02 419.816  -2
   3 -13  -8 2665.02 419.816   1
  -3 -10  -4 4106.59 458.962  -2
   3 -13  -7 4106.59 458.962   1
  -3 -10  -3 3686.63 426.390  -2
   3 -13  -6 3686.63 426.390   1
   3 -13  -5 857.120 415.595   1
  -3 -10  -2 1563.75 526.859  -2
   3 -13  -5 1563.75 526.859   1
   3 -13  -4 2486.05 499.601   1
  -3 -10  -1 3503.63 385.107  -2
   3 -13  -4 3503.63 385.107   1
  -3 -10   0 1163.47 274.787  -2
   3 -13  -3 1163.47 274.787   1
  -3 -10   1 4393.82 332.888  -2
   3 -13  -2 4393.82 332.888   1
  -3 -10   2 5408.97 347.313  -2
   3 -13  -1 5408.97 347.313   1
  -3 -10   3 5173.05 340.265  -2
   3 -13   0 5173.05 340.265   1
  -3 -10   4 1985.67 297.664  -2
   3 -13   1 1985.67 297.664   1
  -3 -10   5 5107.80 356.039  -2
   3 -13   2 5107.80 356.039   1
  -3 -10   6 2379.15 308.842  -2
   3 -13   3 2379.15 308.842   1
  -3 -10   7 3369.77 325.681  -2
   3 -13   4 3369.77 325.681   1
  -3 -10   8 1779.44 303.212  -2
   3 -13   5 1779.44 303.212   1
  -3 -10   9 5833.11 387.799  -2
   3 -13   6 5833.11 387.799   1
  -3 -10  10 2917.72 334.174  -2
   3 -13   7 2917.72 334.174   1
  -3 -10  11 1751.14 322.007  -2
   3 -13   8 1751.14 322.007   1
  -3 -10  12 1883.12 337.655  -2
   3 -13   9 1883.12 337.655   1
  -3 -10  13 2872.67 369.118  -2
   3 -13  10 2872.67 369.118   1
  -3 -10  14 1159.17 341.809  -2
   3 -13  11 1159.17 341.809   1
  -3 -10  15 2483.11 372.847  -2
   3 -13  12 2483.11 372.847   1
  -3 -10  16 1997.28 372.635  -2
   3 -13  13 1997.28 372.635   1
   3 -12 -10 298.723 446.686   1
  -3  -9  -7 1506.48 547.262  -2
   3 -12 -10 1506.48 547.262   1
   3 -12  -9 1423.95 476.107   1
  -3  -9  -6 1563.75 357.698  -2
   3 -12  -9 1563.75 357.698   1
  -3  -9  -5 1284.25 282.570  -2
   3 -12  -8 1284.25 282.570   1
   3 -12  -7 1303.00 456.030   1
  -3  -9  -4 2739.75 359.946  -2
   3 -12  -7 2739.75 359.946   1
   3 -12  -6 114.116 358.836   1
  -3  -9  -3 1382.04 298.267  -2
   3 -12  -6 1382.04 298.267   1
   3 -12  -5 2771.26 450.461   1
  -3  -9  -2 3665.96 282.304  -2
   3 -12  -5 3665.96 282.304   1
   3 -12  -4 14.3558 340.234   1
  -3  -9  -1 2516.16 252.987  -2
   3 -12  -4 2516.16 252.987   1
   3 -12  -3 3070.54 456.160   1
  -3  -9   0 4216.57 278.311  -2
   3 -12  -3 4216.57 278.311   1
  -3  -9   1 1000.93 246.472  -2
   3 -12  -2 1000.93 246.472   1
  -3  -9   2 4187.66 304.679  -2
   3 -12  -1 4187.66 304.679   1
  -3  -9   3 1943.61 270.250  -2
   3 -12   0 1943.61 270.250   1
  -3  -9   4 4035.22 309.177  -2
   3 -12   1 4035.22 309.177   1
  -3  -9   5 3183.11 298.723  -2
   3 -12   2 3183.11 298.723   1
  -3  -9   6 6334.01 353.637  -2
   3 -12   3 6334.01 353.637   1
  -3  -9   7 2380.14 294.114  -2
   3 -12   4 2380.14 294.114   1
  -3  -9   8 4405.51 340.529  -2
   3 -12   5 4405.51 340.529   1
  -3  -9   9 4219.52 337.531  -2
   3 -12   6 4219.52 337.531   1
  -3  -9  10 3281.56 329.110  -2
   3 -12   7 3281.56 329.110   1
   3 -12   8 145.690 335.408   1
  -3  -9  11 1148.79 364.601  -2
   3 -12   8 1148.79 364.601   1
  -3  -9  12 3439.59 347.690  -2
   3 -12   9 3439.59 347.690   1
  -3  -9  13 2161.33 332.020  -2
   3 -12  10 2161.33 332.020   1
  -3  -9  14 2732.32 356.771  -2
   3 -12  11 2732.32 356.771   1
  -3  -9  15 1937.95 345.363  -2
   3 -12  12 1937.95 345.363   1
   3 -12  13 1403.21 395.896   1
  -3  -9  16 2983.39 480.210  -2
   3 -12  13 2983.39 480.210   1
  -3  -9  17 1398.74 708.066  -2
   3 -12  14 1398.74 708.066   1
  -3  -8  -9 2810.51 664.923  -2
   3 -11 -12 2810.51 664.923   1
   3 -11 -11 843.319 457.504   1
  -3  -8  -8 2174.55 596.940  -2
   3 -11 -11 2174.55 596.940   1
   3 -11 -10 1349.47 439.840   1
  -3  -8  -7 2995.15 369.933  -2
   3 -11 -10 2995.15 369.933   1
   3 -11  -9 615.510 401.587   1
  -3  -8  -6 1008.51 320.907  -2
   3 -11  -9 1008.51 320.907   1
   3 -11  -8 2036.73 440.779   1
  -3  -8  -5 3073.46 362.035  -2
   3 -11  -8 3073.46 362.035   1
   3 -11  -7 1227.83 414.072   1
  -3  -8  -4 3813.25 358.191  -2
   3 -11  -7 3813.25 358.191   1
   3 -11  -6 1962.82 391.061   1
  -3  -8  -3 4421.30 275.402  -2
   3 -11  -6 4421.30 275.402   1
   3 -11  -5 1543.13 378.840   1
  -3  -8  -2 4708.74 275.150  -2
   3 -11  -5 4708.74 275.150   1
   3 -11  -4 7972.52 591.643   1
  -3  -8  -1 12601.8 368.991  -2
   3 -11  -4 12601.8 368.991   1
   3 -11  -3 1689.77 351.518   1
  -3  -8   0 6064.98 286.493  -2
   3 -11  -3 6064.98 286.493   1
   3 -11  -2 3641.22 387.825   1
  -3  -8   1 5162.45 389.288  -2
   3 -11  -2 5162.45 389.288   1
  -3  -8   2 3001.37 264.568  -2
   3 -11  -1 3001.37 264.568   1
  -3  -8   3 6271.13 318.109  -2
   3 -11   0 6271.13 318.109   1
  -3  -8   4 4810.70 302.288  -2
   3 -11   1 4810.70 302.288   1
  -3  -8   5 8150.39 356.790  -2
   3 -11   2 8150.39 356.790   1
   3 -11   3 1444.93 356.958   1
  -3  -8   6 11439.8 501.085  -2
   3 -11   3 11439.8 501.085   1
  -3  -8   7 9862.71 389.935  -2
   3 -11   4 9862.71 389.935   1
  -3  -8   8 2514.70 281.823  -2
   3 -11   5 2514.70 281.823   1
  -3  -8   9 3452.51 309.644  -2
   3 -11   6 3452.51 309.644   1
  -3  -8  10 3483.24 315.852  -2
   3 -11   7 3483.24 315.852   1
   3 -11   8 2344.62 393.568   1
  -3  -8  11 4839.30 435.320  -2
   3 -11   8 4839.30 435.320   1
  -3  -8  12 2367.97 306.111  -2
   3 -11   9 2367.97 306.111   1
   3 -11  10 2272.63 395.738   1
  -3  -8  13 3688.58 440.870  -2
   3 -11  10 3688.58 440.870   1
   3 -11  11 175.641 307.237   1
  -3  -8  14 2490.31 428.547  -2
   3 -11  11 2490.31 428.547   1
  -3  -8  15 2383.73 400.648  -2
   3 -11  12 2383.73 400.648   1
   3 -11  13 238.768 309.304   1
  -3  -8  16 2655.40 705.392  -2
   3 -11  13 2655.40 705.392   1
  -3  -8  17 2690.48 716.393  -2
   3 -11  14 2690.48 716.393   1
  -3  -8  18 627.668 672.347  -2
   3 -11  15 627.668 672.347   1
   3 -10 -13 1811.78 544.300   1
  -3  -7 -10 2568.79 661.941  -2
   3 -10 -13 2568.79 661.941   1
   3 -10 -12-14.4688 413.475   1
  -3  -7  -9 947.976 573.844  -2
   3 -10 -12 947.976 573.844   1
   3 -10 -11 2983.13 538.420   1
  -3  -7  -8 3308.89 615.381  -2
   3 -10 -11 3308.89 615.381   1
   3 -10 -10 915.964 422.544   1
  -3  -7  -7 2598.89 338.136  -2
   3 -10 -10 2598.89 338.136   1
   3 -10  -9 1875.95 433.030   1
  -3  -7  -6 3517.72 343.516  -2
   3 -10  -9 3517.72 343.516   1
   3 -10  -8 769.883 364.274   1
  -3  -7  -5 1061.87 216.395  -2
   3 -10  -8 1061.87 216.395   1
   3 -10  -7 1856.43 403.187   1
  -3  -7  -4 3928.30 255.333  -2
   3 -10  -7 3928.30 255.333   1
   3 -10  -6 352.452 173.234   1
  -3  -7  -3 1857.95 210.562  -2
   3 -10  -6 1857.95 210.562   1
   3 -10  -5 2771.84 251.122   1
  -3  -7  -2 5540.69 260.699  -2
   3 -10  -5 5540.69 260.699   1
   3 -10  -4 993.149 317.311   1
  -3  -7  -1 5388.24 260.314  -2
   3 -10  -4 5388.24 260.314   1
   3 -10  -3 8041.96 350.893   1
  -3  -7   0 12521.1 443.764  -2
   3 -10  -3 12521.1 443.764   1
   3 -10  -2 175.767 277.388   1
  -3  -7   1 2101.23 268.634  -2
   3 -10  -2 2101.23 268.634   1
   3 -10  -1 4123.78 277.488   1
  -3  -7   2 4749.72 529.093  -2
   3 -10  -1 4749.72 529.093   1
  -3  -7   3 4385.18 273.628  -2
   3 -10   0 4385.18 273.628   1
  -3  -7   4 1148.62 226.301  -2
   3 -10   1 1148.62 226.301   1
  -3  -7   5 1746.70 245.582  -2
   3 -10   2 1746.70 245.582   1
   3 -10   3 8895.15 546.695   1
  -3  -7   6 16812.5 565.620  -2
   3 -10   3 16812.5 565.620   1
   3 -10   4 978.893 307.413   1
  -3  -7   7 5824.40 409.128  -2
   3 -10   4 5824.40 409.128   1
  -3  -7   8 5968.03 329.361  -2
   3 -10   5 5968.03 329.361   1
  -3  -7   9 2113.93 269.796  -2
   3 -10   6 2113.93 269.796   1
  -3  -7  10 4087.50 308.919  -2
   3 -10   7 4087.50 308.919   1
  -3  -7  11 2703.97 284.985  -2
   3 -10   8 2703.97 284.985   1
   3 -10   9 1974.49 380.127   1
  -3  -7  12 3703.91 403.309  -2
   3 -10   9 3703.91 403.309   1
   3 -10  10 332.603 298.797   1
  -3  -7  13 2698.35 586.436  -2
   3 -10  10 2698.35 586.436   1
   3 -10  11 2757.44 410.975   1
  -3  -7  14 3669.78 630.124  -2
   3 -10  11 3669.78 630.124   1
   3 -10  12 244.487 298.502   1
  -3  -7  15 1399.75 611.692  -2
   3 -10  12 1399.75 611.692   1
   3 -10  13 2275.27 382.777   1
  -3  -7  16 2767.45 673.844  -2
   3 -10  13 2767.45 673.844   1
  -3  -7  17 1964.09 684.897  -2
   3 -10  14 1964.09 684.897   1
  -3  -7  18 1708.40 650.549  -2
   3 -10  15 1708.40 650.549   1
  -3  -7  19 1836.97 706.907  -2
   3 -10  16 1836.97 706.907   1
   3  -9 -14 1547.77 527.207   1
  -3  -6 -11 2828.33 676.467  -2
   3  -9 -14 2828.33 676.467   1
   3  -9 -13 1599.20 368.041   1
  -3  -6 -10 3179.04 460.469  -2
   3  -9 -13 3179.04 460.469   1
   3  -9 -12 1727.14 292.938   1
  -3  -6  -9 4201.80 649.940  -2
   3  -9 -12 4201.80 649.940   1
   3  -9 -11 1600.54 273.692   1
  -3  -6  -8 3004.94 576.086  -2
   3  -9 -11 3004.94 576.086   1
   3  -9 -10 2451.52 279.836   1
  -3  -6  -7 5275.55 373.843  -2
   3  -9 -10 5275.55 373.843   1
   3  -9  -9 286.115 340.063   1
  -3  -6  -6 1613.66 225.614  -2
   3  -9  -9 1613.66 225.614   1
   3  -9  -8 2831.08 259.754   1
  -3  -6  -5 5747.13 366.450  -2
   3  -9  -8 5747.13 366.450   1
   3  -9  -7 3186.06 235.563   1
  -3  -6  -4 8043.05 304.660  -2
   3  -9  -7 8043.05 304.660   1
   3  -9  -6 4256.92 439.593   1
  -3  -6  -3 8044.39 236.526  -2
   3  -9  -6 8044.39 236.526   1
   3  -9  -5 773.265 309.882   1
  -3  -6  -2 3237.89 179.080  -2
   3  -9  -5 3237.89 179.080   1
   3  -9  -4 6197.76 462.808   1
  -3  -6  -1 9580.89 295.320  -2
   3  -9  -4 9580.89 295.320   1
   3  -9  -3 1839.28 172.934   1
  -3  -6   0 6923.04 350.179  -2
   3  -9  -3 6923.04 350.179   1
   3  -9  -2 8492.09 281.225   1
  -3  -6   1 16322.1 461.606  -2
   3  -9  -2 16322.1 461.606   1
   3  -9  -1 765.967 206.968   1
  -3  -6   2 5593.24 319.572  -2
   3  -9  -1 5593.24 319.572   1
   3  -9   0 8580.86 295.266   1
  -3  -6   3 11387.9 638.468  -2
   3  -9   0 11387.9 638.468   1
   3  -9   1 71.8034 183.987   1
  -3  -6   4 5684.41 357.118  -2
   3  -9   1 5684.41 357.118   1
   3  -9   2 8649.35 541.125   1
  -3  -6   5 15913.6 405.547  -2
   3  -9   2 15913.6 405.547   1
   3  -9   3 487.959 271.498   1
  -3  -6   6 6043.31 303.114  -2
   3  -9   3 6043.31 303.114   1
   3  -9   4 8421.54 370.421   1
  -3  -6   7 12394.0 487.385  -2
   3  -9   4 12394.0 487.385   1
   3  -9   5 430.115 180.090   1
  -3  -6   8 6148.31 399.675  -2
   3  -9   5 6148.31 399.675   1
   3  -9   6 6736.58 499.606   1
  -3  -6   9 9921.56 461.131  -2
   3  -9   6 9921.56 461.131   1
  -3  -6  10 7157.82 336.244  -2
   3  -9   7 7157.82 336.244   1
   3  -9   8 2420.65 349.542   1
  -3  -6  11 5701.34 619.566  -2
   3  -9   8 5701.34 619.566   1
   3  -9   9 257.786 253.434   1
  -3  -6  12 1855.21 516.047  -2
   3  -9   9 1855.21 516.047   1
   3  -9  10 3852.22 419.323   1
  -3  -6  13 6539.51 671.603  -2
   3  -9  10 6539.51 671.603   1
   3  -9  11 339.961 259.926   1
  -3  -6  14 3111.43 594.746  -2
   3  -9  11 3111.43 594.746   1
   3  -9  12 1504.20 336.306   1
  -3  -6  15 3196.82 610.446  -2
   3  -9  12 3196.82 610.446   1
   3  -9  13 388.783 265.911   1
  -3  -6  16 1812.62 587.980  -2
   3  -9  13 1812.62 587.980   1
  -3  -6  17 2905.63 710.606  -2
   3  -9  14 2905.63 710.606   1
  -3  -6  18 882.957 619.704  -2
   3  -9  15 882.957 619.704   1
  -3  -6  19 1650.42 687.626  -2
   3  -9  16 1650.42 687.626   1
   3  -8 -15 305.941 367.258   1
  -3  -5 -12 725.542 446.337  -2
   3  -8 -15 725.542 446.337   1
   3  -8 -14 501.658 440.712   1
  -3  -5 -11 1366.48 387.958  -2
   3  -8 -14 1366.48 387.958   1
   3  -8 -13 1705.07 296.877   1
  -3  -5 -10 3363.51 629.225  -2
   3  -8 -13 3363.51 629.225   1
   3  -8 -12 842.746 254.572   1
  -3  -5  -9 2286.98 561.357  -2
   3  -8 -12 2286.98 561.357   1
   3  -8 -11 3464.15 319.299   1
  -3  -5  -8 4902.82 350.387  -2
   3  -8 -11 4902.82 350.387   1
   3  -8 -10 1447.85 248.860   1
  -3  -5  -7 3776.39 315.079  -2
   3  -8 -10 3776.39 315.079   1
   3  -8  -9 1663.49 371.819   1
  -3  -5  -6 3230.71 237.519  -2
   3  -8  -9 3230.71 237.519   1
   3  -8  -8 235.812 142.602   1
  -3  -5  -5 617.927 187.665  -2
   3  -8  -8 617.927 187.665   1
   3  -8  -7 3064.12 180.167   1
  -3  -5  -4 7494.73 356.662  -2
   3  -8  -7 7494.73 356.662   1
   3  -8  -6 2536.97 172.562   1
  -3  -5  -3 8037.62 283.751  -2
   3  -8  -6 8037.62 283.751   1
   3  -8  -5 2778.44 154.128   1
  -3  -5  -2 4917.07 278.359  -2
   3  -8  -5 4917.07 278.359   1
   3  -8  -4 1095.08 133.090   1
  -3  -5  -1 2932.40 208.021  -2
   3  -8  -4 2932.40 208.021   1
   3  -8  -3 6401.60 212.056   1
  -3  -5   0 10898.0 535.237  -2
   3  -8  -3 10898.0 535.237   1
   3  -8  -2 427.011 132.781   1
  -3  -5   1 1827.45 233.986  -2
   3  -8  -2 1827.45 233.986   1
   3  -8  -1 4100.55 203.676   1
   3  -8   0 1854.94 203.606   1
  -3  -5   3 4821.30 385.504  -2
   3  -8   0 4821.30 385.504   1
   3  -8   1 3448.42 195.053   1
   3  -8   2 423.103 150.463   1
  -3  -5   5 3526.22 429.099  -2
   3  -8   2 3526.22 429.099   1
   3  -8   3 2297.80 229.523   1
  -3  -5   6 3984.02 287.874  -2
   3  -8   3 3984.02 287.874   1
   3  -8   4 1028.63 99.0371   1
  -3  -5   7 5257.40 451.368  -2
   3  -8   4 5257.40 451.368   1
   3  -8   5 8432.26 492.483   1
  -3  -5   8 12822.8 377.741  -2
   3  -8   5 12822.8 377.741   1
   3  -8   6 118.213 240.332   1
  -3  -5   9 3293.48 257.841  -2
   3  -8   6 3293.48 257.841   1
   3  -8   7 4113.29 232.229   1
   3  -8   8 1124.96 194.668   1
  -3  -5  11 3897.28 553.857  -2
   3  -8   8 3897.28 553.857   1
   3  -8   9 2286.02 322.786   1
  -3  -5  12 3911.26 556.544  -2
   3  -8   9 3911.26 556.544   1
   3  -8  10 88.2816 237.454   1
  -3  -5  13 3914.16 574.960  -2
   3  -8  10 3914.16 574.960   1
   3  -8  11 3531.23 368.051   1
  -3  -5  14 3947.15 576.685  -2
   3  -8  11 3947.15 576.685   1
   3  -8  12 162.577 239.802   1
  -3  -5  15 1479.72 544.207  -2
   3  -8  12 1479.72 544.207   1
   3  -8  13 3177.84 367.256   1
  -3  -5  16 3601.17 618.595  -2
   3  -8  13 3601.17 618.595   1
  -3  -5  17 5853.66 746.544  -2
   3  -8  14 5853.66 746.544   1
  -3  -5  18 2694.63 663.483  -2
   3  -8  15 2694.63 663.483   1
  -3  -5  19 976.269 638.036  -2
   3  -8  16 976.269 638.036   1
   3  -8  17 1018.94 472.720   1
   3  -7 -16 728.708 421.945   1
  -3  -4 -13 1844.92 477.881  -2
   3  -7 -16 1844.92 477.881   1
   3  -7 -15 254.280 375.639   1
  -3  -4 -12 572.824 343.742  -2
   3  -7 -15 572.824 343.742   1
   3  -7 -14 1085.87 363.671   1
  -3  -4 -11 1885.14 423.790  -2
   3  -7 -14 1885.14 423.790   1
   3  -7 -13 1062.59 271.118   1
  -3  -4 -10 2323.41 567.898  -2
   3  -7 -13 2323.41 567.898   1
   3  -7 -12 3360.76 328.226   1
  -3  -4  -9 5467.26 620.290  -2
   3  -7 -12 5467.26 620.290   1
   3  -7 -11 1529.51 380.841   1
  -3  -4  -8 2494.24 235.267  -2
   3  -7 -11 2494.24 235.267   1
   3  -7 -10 3888.69 298.749   1
  -3  -4  -7 7885.63 371.285  -2
   3  -7 -10 7885.63 371.285   1
   3  -7  -9 1959.63 183.616   1
  -3  -4  -6 5302.21 323.039  -2
   3  -7  -9 5302.21 323.039   1
   3  -7  -8 2723.15 149.889   1
  -3  -4  -5 5345.18 327.061  -2
   3  -7  -8 5345.18 327.061   1
   3  -7  -7 1426.83 131.324   1
  -3  -4  -4 2787.86 219.279  -2
   3  -7  -7 2787.86 219.279   1
   3  -7  -6 4205.12 180.210   1
  -3  -4  -3 9708.88 300.041  -2
   3  -7  -6 9708.88 300.041   1
   3  -7  -5 2812.25 158.238   1
  -3  -4  -2 9226.89 287.446  -2
   3  -7  -5 9226.89 287.446   1
   3  -7  -4 14917.5 266.104   1
  -3  -4  -1 22782.4 462.279  -2
   3  -7  -4 22782.4 462.279   1
   3  -7  -3 4779.09 168.789   1
  -3  -4   0 18198.0 620.945  -2
   3  -7  -3 18198.0 620.945   1
   3  -7  -2 11596.6 243.347   1
  -3  -4   1 18110.8 597.775  -2
   3  -7  -2 18110.8 597.775   1
   3  -7  -1 1022.34 126.582   1
   3  -7   0 10439.6 271.845   1
   3  -7   1 4590.40 200.640   1
   3  -7   2 7493.40 182.428   1
   3  -7   3 2223.87 123.234   1
  -3  -4   6 11500.1 558.534  -2
   3  -7   3 11500.1 558.534   1
   3  -7   4 26888.0 384.697   1
   3  -7   5 172.488 142.085   1
  -3  -4   8 4830.52 313.466  -2
   3  -7   5 4830.52 313.466   1
   3  -7   6 6054.31 248.613   1
   3  -7   7 1720.75 175.430   1
   3  -7   8 3475.75 206.836   1
   3  -7   9 319.750 159.598   1
  -3  -4  12 1134.11 435.524  -2
   3  -7   9 1134.11 435.524   1
   3  -7  10 3782.30 344.763   1
  -3  -4  13 6243.60 602.595  -2
   3  -7  10 6243.60 602.595   1
   3  -7  11 515.631 235.474   1
  -3  -4  14 4116.15 575.327  -2
   3  -7  11 4116.15 575.327   1
   3  -7  12 2209.24 303.065   1
  -3  -4  15 3887.17 597.003  -2
   3  -7  12 3887.17 597.003   1
  -3  -4  16 1594.49 549.271  -2
   3  -7  13 1594.49 549.271   1
  -3  -4  17 3658.57 646.911  -2
   3  -7  14 3658.57 646.911   1
  -3  -4  18 1144.49 573.610  -2
   3  -7  15 1144.49 573.610   1
  -3  -4  19 1553.77 612.818  -2
   3  -7  16 1553.77 612.818   1
  -3  -4  20 224.340 637.894  -2
   3  -7  17 224.340 637.894   1
   3  -6 -17 1179.49 430.053   1
  -3  -3 -14 1734.00 706.834  -2
   3  -6 -17 1734.00 706.834   1
   3  -6 -16 905.874 388.445   1
  -3  -3 -13 1470.98 648.585  -2
   3  -6 -16 1470.98 648.585   1
   3  -6 -15 693.168 354.736   1
  -3  -3 -12 2467.47 659.338  -2
   3  -6 -15 2467.47 659.338   1
  -3  -3 -11 1260.23 303.299  -2
   3  -6 -14 1260.23 303.299   1
  -3  -3 -10 4483.77 339.535  -2
   3  -6 -13 4483.77 339.535   1
   3  -6 -12 1228.92 254.968   1
  -3  -3  -9 2456.54 501.328  -2
   3  -6 -12 2456.54 501.328   1
   3  -6 -11 3841.56 308.420   1
  -3  -3  -8 7728.08 637.675  -2
   3  -6 -11 7728.08 637.675   1
   3  -6 -10 2669.54 233.707   1
  -3  -3  -7 7643.65 401.353  -2
   3  -6 -10 7643.65 401.353   1
   3  -6  -9 4325.20 192.672   1
  -3  -3  -6 8709.37 403.659  -2
   3  -6  -9 8709.37 403.659   1
   3  -6  -8 1543.79 131.509   1
  -3  -3  -5 2587.61 285.648  -2
   3  -6  -8 2587.61 285.648   1
   3  -6  -7 2562.97 140.523   1
  -3  -3  -4 6895.64 344.505  -2
   3  -6  -7 6895.64 344.505   1
   3  -6  -6 882.980 95.3268   1
  -3  -3  -3 1828.94 227.589  -2
   3  -6  -6 1828.94 227.589   1
   3  -6  -5 3924.25 147.486   1
  -3  -3  -2 12396.6 367.768  -2
   3  -6  -5 12396.6 367.768   1
   3  -6  -4 3878.08 152.495   1
  -3  -3  -1 8160.38 302.117  -2
   3  -6  -4 8160.38 302.117   1
   3  -6  -3 7664.23 203.028   1
  -3  -3   0 14316.1 368.026  -2
   3  -6  -3 14316.1 368.026   1
   3  -6  -2 2497.18 140.852   1
  -3  -3   1 10390.6 464.939  -2
   3  -6  -2 10390.6 464.939   1
   3  -6  -1 10758.0 246.196   1
   3  -6   0 291.158 69.3838   1
   3  -6   1 3322.79 112.008   1
   3  -6   2 1433.57 88.9221   1
   3  -6   3 5163.53 174.971   1
   3  -6   4 1002.92 129.153   1
  -3  -3   7 10065.2 497.948  -2
   3  -6   4 10065.2 497.948   1
   3  -6   5 8845.07 263.682   1
   3  -6   6 142.613 114.888   1
   3  -6   7 7476.55 289.388   1
  -3  -3  10 8747.67 589.843  -2
   3  -6   7 8747.67 589.843   1
   3  -6   8 783.300 137.222   1
   3  -6   9 1641.62 178.883   1
  -3  -3  12 2623.08 458.061  -2
   3  -6   9 2623.08 458.061   1
   3  -6  10 249.049 142.512   1
  -3  -3  13 3011.67 503.296  -2
   3  -6  10 3011.67 503.296   1
   3  -6  11 6394.29 397.571   1
  -3  -3  14 8129.25 660.950  -2
   3  -6  11 8129.25 660.950   1
   3  -6  12 599.085 228.030   1
  -3  -3  15 3283.85 549.528  -2
   3  -6  12 3283.85 549.528   1
  -3  -3  16 3334.28 590.776  -2
   3  -6  13 3334.28 590.776   1
  -3  -3  17 2821.02 583.131  -2
   3  -6  14 2821.02 583.131   1
  -3  -3  18 2384.83 611.745  -2
   3  -6  15 2384.83 611.745   1
  -3  -3  19 1324.75 554.753  -2
   3  -6  16 1324.75 554.753   1
  -3  -3  20 1196.88 624.867  -2
   3  -6  17 1196.88 624.867   1
   3  -5 -17 262.504 412.269   1
  -3  -2 -14 439.674 664.089  -2
   3  -5 -17 439.674 664.089   1
  -3  -2 -13 1877.60 432.532  -2
   3  -5 -16 1877.60 432.532   1
   3  -5 -15 544.072 355.458   1
  -3  -2 -12 1384.65 569.327  -2
   3  -5 -15 1384.65 569.327   1
   3  -5 -14 1158.99 369.675   1
  -3  -2 -11 2861.40 568.928  -2
   3  -5 -14 2861.40 568.928   1
   3  -5 -13 2911.67 417.855   1
  -3  -2 -10 5130.10 439.792  -2
   3  -5 -13 5130.10 439.792   1
   3  -5 -12 2002.26 204.292   1
  -3  -2  -9 5051.60 262.509  -2
   3  -5 -12 5051.60 262.509   1
   3  -5 -11 1489.78 179.597   1
  -3  -2  -8 2399.50 216.971  -2
   3  -5 -11 2399.50 216.971   1
   3  -5 -10 7024.05 310.371   1
  -3  -2  -7 10170.7 316.615  -2
   3  -5 -10 10170.7 316.615   1
   3  -5  -9 3654.95 199.601   1
  -3  -2  -6 9624.31 360.680  -2
   3  -5  -9 9624.31 360.680   1
   3  -5  -8 4077.51 257.183   1
  -3  -2  -5 7767.31 276.649  -2
   3  -5  -8 7767.31 276.649   1
   3  -5  -7 1637.85 139.552   1
  -3  -2  -4 5108.68 295.779  -2
   3  -5  -7 5108.68 295.779   1
   3  -5  -6 7257.10 155.925   1
  -3  -2  -3 16563.5 335.289  -2
   3  -5  -6 16563.5 335.289   1
   3  -5  -5 6010.06 136.065   1
  -3  -2  -2 13496.6 375.275  -2
   3  -5  -5 13496.6 375.275   1
   3  -5  -4 6032.99 158.239   1
  -3  -2  -1 8164.23 244.019  -2
   3  -5  -4 8164.23 244.019   1
   3  -5  -3 4298.14 123.083   1
  -3  -2   0 13334.7 516.971  -2
   3  -5  -3 13334.7 516.971   1
   3  -5  -2 20976.9 301.352   1
   3  -5  -1 2276.03 112.564   1
   3  -5   0 10901.8 161.362   1
   3  -5   1 5196.18 123.113   1
   3  -5   2 6613.84 158.273   1
   3  -5   3 874.641 85.9336   1
   3  -5   4 7670.81 293.217   1
  -3  -2   7 10986.5 462.115  -2
   3  -5   4 10986.5 462.115   1
   3  -5   5 4659.55 326.785   1
  -3  -2   8 16231.6 412.646  -2
   3  -5   5 16231.6 412.646   1
   3  -5   6 12105.8 289.307   1
   3  -5   7 1262.68 159.665   1
  -3  -2  10 3223.76 409.070  -2
   3  -5   7 3223.76 409.070   1
   3  -5   8 3573.72 206.408   1
  -3  -2  11 5834.52 532.021  -2
   3  -5   8 5834.52 532.021   1
   3  -5   9 314.127 117.409   1
   3  -5  10 1150.78 156.901   1
  -3  -2  13 3091.50 509.190  -2
   3  -5  10 3091.50 509.190   1
   3  -5  11 241.821 128.310   1
  -3  -2  14 3110.85 519.746  -2
   3  -5  11 3110.85 519.746   1
  -3  -2  15 5976.65 625.734  -2
   3  -5  12 5976.65 625.734   1
  -3  -2  16 1589.57 524.130  -2
   3  -5  13 1589.57 524.130   1
  -3  -2  17 2477.08 578.732  -2
   3  -5  14 2477.08 578.732   1
  -3  -2  18 1408.18 559.638  -2
   3  -5  15 1408.18 559.638   1
  -3  -2  19 1994.54 618.825  -2
   3  -5  16 1994.54 618.825   1
  -3  -2  20 1379.66 630.186  -2
   3  -5  17 1379.66 630.186   1
  -3  -1 -15 2077.01 469.244  -2
   3  -4 -18 2077.01 469.244   1
  -3  -1 -14 3984.06 477.923  -2
   3  -4 -17 3984.06 477.923   1
  -3  -1 -13 1077.67 389.532  -2
   3  -4 -16 1077.67 389.532   1
  -3  -1 -12 1971.10 372.952  -2
   3  -4 -15 1971.10 372.952   1
   3  -4 -14 179.017 310.884   1
  -3  -1 -11 921.675 475.425  -2
   3  -4 -14 921.675 475.425   1
   3  -4 -13 1807.74 367.932   1
  -3  -1 -10 3388.88 547.277  -2
   3  -4 -13 3388.88 547.277   1
   3  -4 -12 1705.62 182.686   1
  -3  -1  -9 3545.46 364.199  -2
   3  -4 -12 3545.46 364.199   1
   3  -4 -11 2302.81 198.205   1
  -3  -1  -8 7634.11 415.374  -2
   3  -4 -11 7634.11 415.374   1
   3  -4 -10 1693.93 179.891   1
  -3  -1  -7 2070.97 195.191  -2
   3  -4 -10 2070.97 195.191   1
   3  -4  -9 3467.05 227.060   1
  -3  -1  -6 8125.51 283.598  -2
   3  -4  -9 8125.51 283.598   1
   3  -4  -8 2008.07 150.548   1
  -3  -1  -5 3345.08 239.067  -2
   3  -4  -8 3345.08 239.067   1
   3  -4  -7 3238.01 203.958   1
  -3  -1  -4 7222.68 245.424  -2
   3  -4  -7 7222.68 245.424   1
   3  -4  -6 2683.97 148.526   1
  -3  -1  -3 5085.54 271.201  -2
   3  -4  -6 5085.54 271.201   1
   3  -4  -5 4265.93 177.668   1
  -3  -1  -2 14248.9 354.964  -2
   3  -4  -5 14248.9 354.964   1
   3  -4  -4 172.192 57.7403   1
  -3  -1  -1 822.808 186.120  -2
   3  -4  -4 822.808 186.120   1
   3  -4  -3 12054.4 187.906   1
  -3  -1   0 20767.8 421.291  -2
   3  -4  -3 20767.8 421.291   1
   3  -4  -2 5636.45 149.980   1
   3  -4  -1 3950.03 107.349   1
   3  -4   0 3848.95 89.6988   1
   3  -4   1 25696.0 244.339   1
   3  -4   2 7476.16 157.282   1
  -3  -1   5 20902.7 574.684  -2
   3  -4   2 20902.7 574.684   1
   3  -4   3 1059.47 95.4250   1
   3  -4   4 685.028 125.692   1
  -3  -1   7 5281.97 259.953  -2
   3  -4   4 5281.97 259.953   1
   3  -4   5 12855.2 478.644   1
  -3  -1   8 20057.0 430.387  -2
   3  -4   5 20057.0 430.387   1
   3  -4   6 1119.27 148.955   1
  -3  -1   9 7923.43 494.569  -2
   3  -4   6 7923.43 494.569   1
   3  -4   7 11931.8 361.767   1
  -3  -1  10 18619.2 542.057  -2
   3  -4   7 18619.2 542.057   1
   3  -4   8 7184.56 374.105   1
  -3  -1  11 16625.5 423.187  -2
   3  -4   8 16625.5 423.187   1
   3  -4   9 3950.73 198.648   1
  -3  -1  12 4981.54 496.950  -2
   3  -4   9 4981.54 496.950   1
   3  -4  10 257.250 162.552   1
  -3  -1  13 2238.60 451.007  -2
   3  -4  10 2238.60 451.007   1
   3  -4  11 3609.53 262.447   1
  -3  -1  14 4577.49 540.548  -2
   3  -4  11 4577.49 540.548   1
  -3  -1  15 3103.94 526.246  -2
   3  -4  12 3103.94 526.246   1
  -3  -1  16 5297.64 612.941  -2
   3  -4  13 5297.64 612.941   1
  -3  -1  17 2929.97 582.756  -2
   3  -4  14 2929.97 582.756   1
  -3  -1  18 2129.82 588.892  -2
   3  -4  15 2129.82 588.892   1
  -3  -1  19 814.941 585.302  -2
   3  -4  16 814.941 585.302   1
  -3  -1  20 1718.13 610.970  -2
   3  -4  17 1718.13 610.970   1
   3  -3 -18 839.604 461.615   1
  -3   0 -15 2010.07 670.646  -2
   3  -3 -18 2010.07 670.646   1
  -3   0 -14 745.974 411.823  -2
   3  -3 -17 745.974 411.823   1
  -3   0 -13 2805.50 407.653  -2
   3  -3 -16 2805.50 407.653   1
  -3   0 -12 1416.23 356.078  -2
   3  -3 -15 1416.23 356.078   1
  -3   0 -11 2959.85 369.521  -2
   3  -3 -14 2959.85 369.521   1
   3  -3 -13 885.346 143.708   1
  -3   0 -10 2463.12 512.181  -2
   3  -3 -13 2463.12 512.181   1
   3  -3 -12 3385.84 239.899   1
  -3   0  -9 11109.3 486.952  -2
   3  -3 -12 11109.3 486.952   1
   3  -3 -11 3011.28 236.048   1
  -3   0  -8 6510.62 392.000  -2
   3  -3 -11 6510.62 392.000   1
   3  -3 -10 7320.62 342.935   1
  -3   0  -7 13247.8 482.285  -2
   3  -3 -10 13247.8 482.285   1
   3  -3  -9 7802.54 354.823   1
  -3   0  -6 14063.3 359.176  -2
   3  -3  -9 14063.3 359.176   1
   3  -3  -8 7462.47 349.377   1
  -3   0  -5 15882.6 288.440  -2
   3  -3  -8 15882.6 288.440   1
   3  -3  -7 1947.93 167.455   1
  -3   0  -4 2571.35 179.505  -2
   3  -3  -7 2571.35 179.505   1
   3  -3  -6 8267.12 218.984   1
  -3   0  -3 16015.7 403.942  -2
   3  -3  -6 16015.7 403.942   1
   3  -3  -5 7590.82 182.641   1
  -3   0  -2 16807.8 579.573  -2
   3  -3  -5 16807.8 579.573   1
   3  -3  -4 14597.6 174.471   1
  -3   0  -1 37410.2 546.054  -2
   3  -3  -4 37410.2 546.054   1
   3  -3  -3 14246.2 175.313   1
  -3   0   0 25613.7 622.439  -2
   3  -3  -3 25613.7 622.439   1
   3  -3  -2 15299.0 211.707   1
   3  -3  -1 3727.22 100.193   1
   3  -3   0 12412.9 165.163   1
   3  -3   1 1776.45 69.2697   1
   3  -3   2 7172.70 155.284   1
   3  -3   3 1854.61 103.809   1
   3  -3   4 11812.1 251.753   1
  -3   0   7 17518.5 512.208  -2
   3  -3   4 17518.5 512.208   1
   3  -3   5 511.862 121.327   1
  -3   0   8 4715.57 404.997  -2
   3  -3   5 4715.57 404.997   1
   3  -3   6 6589.96 350.395   1
  -3   0   9 13935.8 368.732  -2
   3  -3   6 13935.8 368.732   1
  -3   0  10 2263.76 212.305  -2
   3  -3   7 2263.76 212.305   1
  -3   0  11 7480.18 301.265  -2
   3  -3   8 7480.18 301.265   1
  -3   0  12 1715.20 207.880  -2
   3  -3   9 1715.20 207.880   1
  -3   0  13 2405.48 217.345  -2
   3  -3  10 2405.48 217.345   1
   3  -3  11 53.2955 137.680   1
  -3   0  14 714.104 413.897  -2
   3  -3  11 714.104 413.897   1
  -3   0  15 4707.13 567.966  -2
   3  -3  12 4707.13 567.966   1
  -3   0  16 2709.75 535.164  -2
   3  -3  13 2709.75 535.164   1
  -3   0  17 3605.33 590.395  -2
   3  -3  14 3605.33 590.395   1
  -3   0  18 2968.47 607.199  -2
   3  -3  15 2968.47 607.199   1
  -3   0  19 648.853 570.192  -2
   3  -3  16 648.853 570.192   1
  -3   0  20 187.416 626.256  -2
   3  -3  17 187.416 626.256   1
  -3   1 -16 1349.92 466.128  -2
   3  -2 -19 1349.92 466.128   1
  -3   1 -15 1211.35 426.687  -2
   3  -2 -18 1211.35 426.687   1
   3  -2 -17 1644.28 456.655   1
  -3   1 -14 3411.46 629.702  -2
   3  -2 -17 3411.46 629.702   1
  -3   1 -13 1048.89 360.006  -2
   3  -2 -16 1048.89 360.006   1
  -3   1 -12 2001.56 374.440  -2
   3  -2 -15 2001.56 374.440   1
  -3   1 -11 1330.62 330.464  -2
   3  -2 -14 1330.62 330.464   1
   3  -2 -13 1099.41 165.263   1
  -3   1 -10 2225.62 346.409  -2
   3  -2 -13 2225.62 346.409   1
   3  -2 -12 3015.84 234.891   1
  -3   1  -9 5250.28 384.861  -2
   3  -2 -12 5250.28 384.861   1
   3  -2 -11 2015.89 201.984   1
  -3   1  -8 7255.61 391.660  -2
   3  -2 -11 7255.61 391.660   1
   3  -2 -10 1107.95 179.663   1
  -3   1  -7 1654.08 277.102  -2
   3  -2 -10 1654.08 277.102   1
   3  -2  -9 5730.68 307.242   1
  -3   1  -6 14000.6 437.483  -2
   3  -2  -9 14000.6 437.483   1
   3  -2  -8 5771.16 311.652   1
  -3   1  -5 12556.2 396.947  -2
   3  -2  -8 12556.2 396.947   1
   3  -2  -7 2217.49 225.747   1
  -3   1  -4 3340.30 245.769  -2
   3  -2  -7 3340.30 245.769   1
   3  -2  -6 1083.03 201.449   1
  -3   1  -3 1600.88 212.838  -2
   3  -2  -6 1600.88 212.838   1
   3  -2  -5 4974.71 303.798   1
  -3   1  -2 12387.9 348.110  -2
   3  -2  -5 12387.9 348.110   1
   3  -2  -4 4458.29 128.415   1
  -3   1  -1 8009.89 408.773  -2
   3  -2  -4 8009.89 408.773   1
   3  -2  -3 6437.69 128.571   1
  -3   1   0 15953.2 509.935  -2
   3  -2  -3 15953.2 509.935   1
   3  -2  -2 11778.6 183.243   1
   3  -2  -1 27597.3 464.597   1
   3  -2   0 2907.54 184.239   1
   3  -2   1 7314.24 253.915   1
   3  -2   2 4705.55 135.680   1
   3  -2   3 12899.7 233.169   1
   3  -2   4 6075.68 220.629   1
  -3   1   7 13093.8 448.577  -2
   3  -2   4 13093.8 448.577   1
  -3   1   8 12866.8 349.854  -2
   3  -2   5 12866.8 349.854   1
  -3   1   9 9651.72 316.778  -2
   3  -2   6 9651.72 316.778   1
  -3   1  10 15552.0 385.478  -2
   3  -2   7 15552.0 385.478   1
  -3   1  11 7250.28 292.659  -2
   3  -2   8 7250.28 292.659   1
  -3   1  12 9016.54 313.449  -2
   3  -2   9 9016.54 313.449   1
  -3   1  13 3233.56 227.545  -2
   3  -2  10 3233.56 227.545   1
  -3   1  14 3617.61 499.190  -2
   3  -2  11 3617.61 499.190   1
  -3   1  15 3310.20 537.610  -2
   3  -2  12 3310.20 537.610   1
  -3   1  16 5407.16 615.008  -2
   3  -2  13 5407.16 615.008   1
  -3   1  17 1946.77 560.691  -2
   3  -2  14 1946.77 560.691   1
  -3   1  18 2497.45 587.303  -2
   3  -2  15 2497.45 587.303   1
  -3   1  19 1634.82 595.938  -2
   3  -2  16 1634.82 595.938   1
  -3   2 -16 971.419 415.984  -2
   3  -1 -19 971.419 415.984   1
  -3   2 -15 2126.30 435.171  -2
   3  -1 -18 2126.30 435.171   1
  -3   2 -14 946.623 379.800  -2
   3  -1 -17 946.623 379.800   1
  -3   2 -13 4354.98 448.485  -2
   3  -1 -16 4354.98 448.485   1
  -3   2 -12 2639.34 375.948  -2
   3  -1 -15 2639.34 375.948   1
  -3   2 -11 3009.05 362.891  -2
   3  -1 -14 3009.05 362.891   1
   3  -1 -13 1641.20 186.858   1
  -3   2 -10 2599.69 335.652  -2
   3  -1 -13 2599.69 335.652   1
   3  -1 -12 3919.08 263.843   1
  -3   2  -9 9131.54 432.878  -2
   3  -1 -12 9131.54 432.878   1
   3  -1 -11 3938.56 266.376   1
  -3   2  -8 7291.07 399.546  -2
   3  -1 -11 7291.07 399.546   1
   3  -1 -10 7109.22 273.199   1
  -3   2  -7 14831.3 662.099  -2
   3  -1 -10 14831.3 662.099   1
   3  -1  -9 7439.06 176.587   1
  -3   2  -6 9057.71 362.557  -2
   3  -1  -9 9057.71 362.557   1
   3  -1  -8 4629.63 137.391   1
  -3   2  -5 13223.7 400.116  -2
   3  -1  -8 13223.7 400.116   1
   3  -1  -7 6128.68 156.017   1
  -3   2  -4 12806.4 260.343  -2
   3  -1  -7 12806.4 260.343   1
   3  -1  -6 13318.2 174.880   1
  -3   2  -3 26858.6 686.697  -2
   3  -1  -6 26858.6 686.697   1
   3  -1  -5 4524.62 133.679   1
  -3   2  -2 9615.89 444.089  -2
   3  -1  -5 9615.89 444.089   1
   3  -1  -4 6758.55 150.544   1
   3  -1  -3 1518.44 84.4228   1
  -3   2   0 4660.51 336.897  -2
   3  -1  -3 4660.51 336.897   1
   3  -1  -2 19408.5 229.980   1
   3  -1  -1 12753.1 192.195   1
   3  -1   0 9377.62 194.829   1
   3  -1   1 3893.70 107.939   1
   3  -1   2 7656.69 184.794   1
   3  -1   3 421.154 109.351   1
  -3   2   6 1646.52 257.360  -2
   3  -1   3 1646.52 257.360   1
   3  -1   4 1318.46 128.381   1
  -3   2   8 12533.2 448.064  -2
   3  -1   5 12533.2 448.064   1
  -3   2   9 12255.3 442.199  -2
   3  -1   6 12255.3 442.199   1
  -3   2  10 1512.37 199.383  -2
   3  -1   7 1512.37 199.383   1
  -3   2  11 7512.48 295.337  -2
   3  -1   8 7512.48 295.337   1
  -3   2  12 5282.72 263.475  -2
   3  -1   9 5282.72 263.475   1
  -3   2  13 2839.92 216.321  -2
   3  -1  10 2839.92 216.321   1
  -3   2  14 1215.13 433.594  -2
   3  -1  11 1215.13 433.594   1
  -3   2  15 3216.52 531.558  -2
   3  -1  12 3216.52 531.558   1
  -3   2  16 1338.41 511.275  -2
   3  -1  13 1338.41 511.275   1
  -3   2  17 3754.20 605.121  -2
   3  -1  14 3754.20 605.121   1
  -3   2  18 1832.25 560.409  -2
   3  -1  15 1832.25 560.409   1
  -3   2  19 2695.76 641.121  -2
   3  -1  16 2695.76 641.121   1
  -3   3 -17 515.805 440.878  -2
   3   0 -20 515.805 440.878   1
  -3   3 -16 1398.22 446.874  -2
   3   0 -19 1398.22 446.874   1
  -3   3 -15 1919.96 428.328  -2
   3   0 -18 1919.96 428.328   1
  -3   3 -14 3595.55 425.521  -2
   3   0 -17 3595.55 425.521   1
  -3   3 -13 1990.78 378.514  -2
   3   0 -16 1990.78 378.514   1
  -3   3 -12 4643.28 409.295  -2
   3   0 -15 4643.28 409.295   1
   3   0 -14 369.119 140.624   1
  -3   3 -11 320.811 297.574  -2
   3   0 -14 320.811 297.574   1
   3   0 -13 1643.09 205.325   1
  -3   3 -10 2076.06 318.396  -2
   3   0 -13 2076.06 318.396   1
   3   0 -12 1123.26 188.823   1
  -3   3  -9 1813.65 293.030  -2
   3   0 -12 1813.65 293.030   1
   3   0 -11 2123.49 136.349   1
  -3   3  -8 7082.28 537.323  -2
   3   0 -11 7082.28 537.323   1
   3   0 -10 1613.06 126.829   1
  -3   3  -7 1924.88 264.214  -2
   3   0 -10 1924.88 264.214   1
   3   0  -9 6654.19 206.165   1
  -3   3  -6 13374.5 415.736  -2
   3   0  -9 13374.5 415.736   1
   3   0  -8 3393.48 158.140   1
  -3   3  -5 4382.75 188.075  -2
   3   0  -8 4382.75 188.075   1
   3   0  -7 5428.94 169.338   1
  -3   3  -4 19132.7 329.618  -2
   3   0  -7 19132.7 329.618   1
   3   0  -6 964.338 78.0091   1
  -3   3  -3 3015.76 160.713  -2
   3   0  -6 3015.76 160.713   1
   3   0  -5 5192.63 134.767   1
  -3   3  -2 12056.1 480.461  -2
   3   0  -5 12056.1 480.461   1
   3   0  -4 889.713 74.7057   1
   3   0  -3 11758.7 193.283   1
   3   0  -2 9432.42 198.271   1
   3   0  -1 5748.01 185.535   1
   3   0   0 11401.8 167.348   1
   3   0   1 22856.3 303.028   1
   3   0   2 8079.18 210.876   1
   3   0   3 8109.16 229.801   1
  -3   3   7 2572.38 268.377  -2
   3   0   4 2572.38 268.377   1
  -3   3   8 16082.8 507.778  -2
   3   0   5 16082.8 507.778   1
  -3   3   9 15524.0 495.224  -2
   3   0   6 15524.0 495.224   1
  -3   3  10 13162.7 455.291  -2
   3   0   7 13162.7 455.291   1
  -3   3  11 5578.94 329.419  -2
   3   0   8 5578.94 329.419   1
  -3   3  12 10187.8 340.854  -2
   3   0   9 10187.8 340.854   1
   3   0  10 1043.72 315.944   1
  -3   3  13 2128.37 239.563  -2
   3   0  10 2128.37 239.563   1
  -3   3  14 3488.91 505.551  -2
   3   0  11 3488.91 505.551   1
  -3   3  15 1975.99 493.752  -2
   3   0  12 1975.99 493.752   1
  -3   3  16 3470.99 565.655  -2
   3   0  13 3470.99 565.655   1
  -3   3  17 1003.86 526.045  -2
   3   0  14 1003.86 526.045   1
  -3   3  18 2996.11 567.992  -2
   3   0  15 2996.11 567.992   1
   3   0  16 739.784 444.236   1
  -3   4 -17 1217.41 441.606  -2
   3   1 -20 1217.41 441.606   1
  -3   4 -16 829.352 418.574  -2
   3   1 -19 829.352 418.574   1
  -3   4 -15 1687.93 406.403  -2
   3   1 -18 1687.93 406.403   1
  -3   4 -14 1680.13 383.227  -2
   3   1 -17 1680.13 383.227   1
  -3   4 -13 4725.34 428.489  -2
   3   1 -16 4725.34 428.489   1
  -3   4 -12 2631.91 370.427  -2
   3   1 -15 2631.91 370.427   1
   3   1 -14 828.745 186.789   1
  -3   4 -11 3520.24 369.772  -2
   3   1 -14 3520.24 369.772   1
   3   1 -13 1712.05 229.468   1
  -3   4 -10 1689.13 302.597  -2
   3   1 -13 1689.13 302.597   1
   3   1 -12 585.318 182.822   1
  -3   4  -9 4768.26 343.569  -2
   3   1 -12 4768.26 343.569   1
   3   1 -11 8450.85 400.445   1
  -3   4  -8 14317.0 472.522  -2
   3   1 -11 14317.0 472.522   1
   3   1 -10 6739.21 354.909   1
  -3   4  -7 18169.1 488.997  -2
   3   1 -10 18169.1 488.997   1
   3   1  -9 6234.24 350.516   1
  -3   4  -6 6979.43 320.395  -2
   3   1  -9 6979.43 320.395   1
   3   1  -8 6613.22 197.736   1
  -3   4  -5 20544.5 326.121  -2
   3   1  -8 20544.5 326.121   1
   3   1  -7 4410.52 145.525   1
  -3   4  -4 5224.43 197.635  -2
   3   1  -7 5224.43 197.635   1
   3   1  -6 440.330 82.4447   1
  -3   4  -3 1628.27 117.860  -2
   3   1  -6 1628.27 117.860   1
   3   1  -5 12546.7 195.606   1
   3   1  -4 18040.4 303.933   1
   3   1  -3 4117.90 164.484   1
   3   1  -2 6459.92 225.615   1
   3   1  -1 11163.8 280.343   1
   3   1   0 8136.82 179.338   1
   3   1   1 439.152 87.6302   1
  -3   4   4 718.412 249.403  -2
   3   1   1 718.412 249.403   1
   3   1   2 10607.7 266.793   1
   3   1   3 1990.54 244.711   1
   3   1   4 4109.05 302.175   1
   3   1   5 1107.77 209.417   1
  -3   4   9 8138.01 395.853  -2
   3   1   6 8138.01 395.853   1
  -3   4  10 2291.74 265.254  -2
   3   1   7 2291.74 265.254   1
  -3   4  11 7418.83 378.388  -2
   3   1   8 7418.83 378.388   1
  -3   4  12 3069.01 283.788  -2
   3   1   9 3069.01 283.788   1
  -3   4  14 852.170 442.677  -2
   3   1  11 852.170 442.677   1
  -3   4  15 1768.72 479.485  -2
   3   1  12 1768.72 479.485   1
  -3   4  16 2184.03 538.591  -2
   3   1  13 2184.03 538.591   1
  -3   4  17 3813.19 603.251  -2
   3   1  14 3813.19 603.251   1
  -3   4  18 2268.04 602.757  -2
   3   1  15 2268.04 602.757   1
  -3   5 -17 975.146 454.278  -2
   3   2 -20 975.146 454.278   1
  -3   5 -16 942.922 416.354  -2
   3   2 -19 942.922 416.354   1
  -3   5 -15 1108.54 402.770  -2
   3   2 -18 1108.54 402.770   1
  -3   5 -14 1658.64 387.512  -2
   3   2 -17 1658.64 387.512   1
  -3   5 -13 1210.82 345.411  -2
   3   2 -16 1210.82 345.411   1
   3   2 -15 2155.44 399.728   1
  -3   5 -12 5949.96 574.751  -2
   3   2 -15 5949.96 574.751   1
   3   2 -14 2080.02 248.030   1
  -3   5 -11 2433.80 313.568  -2
   3   2 -14 2433.80 313.568   1
   3   2 -13 1161.23 216.401   1
  -3   5 -10 2600.24 310.160  -2
   3   2 -13 2600.24 310.160   1
   3   2 -12 797.909 197.634   1
  -3   5  -9 998.516 258.243  -2
   3   2 -12 998.516 258.243   1
   3   2 -11 1927.08 253.111   1
  -3   5  -8 4968.71 330.576  -2
   3   2 -11 4968.71 330.576   1
   3   2 -10 1967.63 246.620   1
  -3   5  -7 3164.74 218.389  -2
   3   2 -10 3164.74 218.389   1
   3   2  -9 10473.8 464.055   1
  -3   5  -6 22807.9 503.015  -2
   3   2  -9 22807.9 503.015   1
   3   2  -8 10708.3 335.687   1
  -3   5  -5 14327.1 393.228  -2
   3   2  -8 14327.1 393.228   1
   3   2  -7 3259.62 146.169   1
   3   2  -6 2384.50 149.774   1
  -3   5  -3 3777.70 336.384  -2
   3   2  -6 3777.70 336.384   1
   3   2  -5 4371.74 229.771   1
  -3   5  -2 11845.9 474.888  -2
   3   2  -5 11845.9 474.888   1
   3   2  -4 6486.03 118.061   1
   3   2  -3 4565.61 128.474   1
   3   2  -2 2592.65 124.938   1
   3   2  -1 19656.1 262.252   1
   3   2   0 8357.17 207.972   1
   3   2   1 2649.11 136.904   1
   3   2   2 6943.47 365.761   1
  -3   5   5 12480.6 491.282  -2
   3   2   2 12480.6 491.282   1
  -3   5   6 16269.3 553.931  -2
   3   2   3 16269.3 553.931   1
   3   2   4 3101.67 286.244   1
   3   2   5 4048.62 316.861   1
  -3   5   9 9162.27 437.198  -2
   3   2   6 9162.27 437.198   1
  -3   5  10 9923.43 443.842  -2
   3   2   7 9923.43 443.842   1
  -3   5  11 1837.57 271.620  -2
   3   2   8 1837.57 271.620   1
  -3   5  12 4303.90 328.486  -2
   3   2   9 4303.90 328.486   1
  -3   5  15 1190.04 489.603  -2
   3   2  12 1190.04 489.603   1
  -3   5  16 2284.25 555.536  -2
   3   2  13 2284.25 555.536   1
  -3   5  17 762.742 529.655  -2
   3   2  14 762.742 529.655   1
   3   2  15 476.995 448.135   1
  -3   6 -17 2061.98 439.757  -2
   3   3 -20 2061.98 439.757   1
  -3   6 -16 1090.88 407.652  -2
   3   3 -19 1090.88 407.652   1
  -3   6 -15 2302.83 421.218  -2
   3   3 -18 2302.83 421.218   1
  -3   6 -14 2548.30 390.103  -2
   3   3 -17 2548.30 390.103   1
  -3   6 -13 3227.61 378.068  -2
   3   3 -16 3227.61 378.068   1
   3   3 -15 2160.94 253.719   1
  -3   6 -12 2209.35 339.121  -2
   3   3 -15 2209.35 339.121   1
   3   3 -14 1529.19 170.642   1
   3   3 -13 1687.87 256.533   1
  -3   6 -10 2150.60 296.408  -2
   3   3 -13 2150.60 296.408   1
   3   3 -12 927.983 229.134   1
  -3   6  -9 2286.04 279.497  -2
   3   3 -12 2286.04 279.497   1
   3   3 -11 3678.96 328.929   1
  -3   6  -8 4565.76 252.876  -2
   3   3 -11 4565.76 252.876   1
   3   3 -10 859.333 147.214   1
  -3   6  -7 9336.64 547.546  -2
   3   3 -10 9336.64 547.546   1
   3   3  -9 2309.87 299.510   1
  -3   6  -6 2370.97 238.152  -2
   3   3  -9 2370.97 238.152   1
   3   3  -8 7225.09 382.542   1
  -3   6  -5 17251.7 615.498  -2
   3   3  -8 17251.7 615.498   1
   3   3  -7 6444.08 355.939   1
  -3   6  -4 7305.21 427.982  -2
   3   3  -7 7305.21 427.982   1
   3   3  -6 2860.16 197.429   1
  -3   6  -3 8847.21 439.549  -2
   3   3  -6 8847.21 439.549   1
   3   3  -5 1321.21 164.147   1
   3   3  -4 3738.55 211.304   1
   3   3  -3 972.955 98.7903   1
   3   3  -2 9902.47 242.062   1
   3   3  -1 7263.90 228.401   1
   3   3   0 5897.14 226.941   1
   3   3   1 3478.74 204.939   1
   3   3   2 7077.17 391.917   1
   3   3   4 3604.68 323.931   1
  -3   6   8 1936.35 299.255  -2
   3   3   5 1936.35 299.255   1
   3   3   6 3870.34 331.011   1
   3   3   7 4133.17 342.625   1
  -3   6  11 5665.13 382.520  -2
   3   3   8 5665.13 382.520   1
  -3   6  12 1521.76 277.334  -2
   3   3   9 1521.76 277.334   1
  -3   6  16 930.872 533.784  -2
   3   3  13 930.872 533.784   1
  -3   6  17 1385.79 591.475  -2
   3   3  14 1385.79 591.475   1
   3   4 -20 313.452 454.970   1
  -3   7 -17 488.528 546.495  -2
   3   4 -20 488.528 546.495   1
  -3   7 -16 1468.94 397.144  -2
   3   4 -19 1468.94 397.144   1
  -3   7 -15 1187.58 381.051  -2
   3   4 -18 1187.58 381.051   1
   3   4 -17 815.721 399.870   1
  -3   7 -14 2834.54 529.279  -2
   3   4 -17 2834.54 529.279   1
  -3   7 -13 1632.47 340.433  -2
   3   4 -16 1632.47 340.433   1
   3   4 -15 1409.07 212.681   1
  -3   7 -12 3641.64 497.708  -2
   3   4 -15 3641.64 497.708   1
   3   4 -14 2705.29 316.276   1
  -3   7 -11 3163.97 325.773  -2
   3   4 -14 3163.97 325.773   1
   3   4 -13 1887.39 222.390   1
  -3   7 -10 5459.54 350.937  -2
   3   4 -13 5459.54 350.937   1
   3   4 -12 733.756 158.885   1
  -3   7  -8 5344.54 268.996  -2
   3   4 -11 5344.54 268.996   1
   3   4 -10 3264.95 251.069   1
  -3   7  -7 4333.12 383.790  -2
   3   4 -10 4333.12 383.790   1
   3   4  -9 1844.77 195.624   1
  -3   7  -6 9105.36 503.462  -2
   3   4  -9 9105.36 503.462   1
   3   4  -8 3646.48 182.809   1
   3   4  -7 15347.2 371.530   1
   3   4  -6 7854.84 399.053   1
   3   4  -5 1759.39 230.783   1
   3   4  -4 11723.0 439.957   1
   3   4  -3 4953.68 232.685   1
   3   4  -2 2815.57 207.503   1
   3   4  -1 5545.84 284.608   1
   3   4   0 12175.5 438.564   1
   3   4   1 7443.88 289.979   1
   3   4   2 4839.15 375.323   1
  -3   7   5 7786.77 472.855  -2
   3   4   2 7786.77 472.855   1
   3   4   3 4445.08 385.456   1
  -3   7   6 8662.23 531.785  -2
   3   4   3 8662.23 531.785   1
   3   4   4 1371.31 274.868   1
  -3   7   9 4177.97 377.576  -2
   3   4   6 4177.97 377.576   1
  -3   7  10 6300.95 434.210  -2
   3   4   7 6300.95 434.210   1
   3   4   8 815.049 238.503   1
   3   4   9 2591.32 294.437   1
   3   5 -19 1225.27 443.964   1
  -3   8 -16 1105.30 522.486  -2
   3   5 -19 1105.30 522.486   1
   3   5 -18 857.776 279.194   1
   3   5 -17 2547.17 466.331   1
  -3   8 -14 4649.35 570.131  -2
   3   5 -17 4649.35 570.131   1
  -3   8 -13 3816.41 382.887  -2
   3   5 -16 3816.41 382.887   1
   3   5 -15 1339.21 223.717   1
  -3   8 -12 1781.66 423.998  -2
   3   5 -15 1781.66 423.998   1
  -3   8 -11 4383.86 296.107  -2
   3   5 -14 4383.86 296.107   1
   3   5 -13 2399.74 325.162   1
  -3   8 -10 2248.72 328.360  -2
   3   5 -13 2248.72 328.360   1
   3   5 -12 604.073 265.081   1
  -3   8  -9 3112.36 299.792  -2
   3   5 -12 3112.36 299.792   1
   3   5 -11 2298.31 286.958   1
  -3   8  -8 3372.90 313.304  -2
   3   5 -11 3372.90 313.304   1
   3   5 -10 905.085 181.181   1
  -3   8  -7 4426.43 423.526  -2
   3   5 -10 4426.43 423.526   1
   3   5  -9 2192.27 201.532   1
  -3   8  -6 2677.00 355.231  -2
   3   5  -9 2677.00 355.231   1
   3   5  -8 3934.20 295.741   1
  -3   8  -5 14275.8 445.611  -2
   3   5  -8 14275.8 445.611   1
   3   5  -7 4773.52 264.614   1
   3   5  -6 1537.72 187.666   1
   3   5  -5 1997.96 234.423   1
  -3   8  -2 2326.82 407.199  -2
   3   5  -5 2326.82 407.199   1
   3   5  -4 1641.47 284.123   1
   3   5  -3 2223.34 170.549   1
   3   5  -2 4910.09 395.336   1
  -3   8   1 9101.40 382.813  -2
   3   5  -2 9101.40 382.813   1
   3   5  -1 1203.02 269.870   1
  -3   8   2 1997.65 270.257  -2
   3   5  -1 1997.65 270.257   1
   3   5   0 3684.68 233.482   1
   3   5   1 1623.47 291.277   1
  -3   8   4 2940.30 380.625  -2
   3   5   1 2940.30 380.625   1
   3   5   2 2012.20 213.157   1
   3   5   3 4420.89 280.944   1
   3   5   4 3199.72 394.624   1
  -3   8   7 6255.41 523.072  -2
   3   5   4 6255.41 523.072   1
   3   5   5 246.702 281.353   1
  -3   8   8 450.266 382.887  -2
   3   5   5 450.266 382.887   1
   3   5   8 1598.31 296.674   1
   3   6 -19 133.039 270.315   1
   3   6 -18 323.056 387.880   1
  -3   9 -15 441.042 462.190  -2
   3   6 -18 441.042 462.190   1
   3   6 -17 1173.35 264.998   1
   3   6 -16 1370.13 383.563   1
  -3   9 -13 1676.96 416.234  -2
   3   6 -16 1676.96 416.234   1
   3   6 -15 788.398 279.252   1
  -3   9 -12 2730.21 381.696  -2
   3   6 -15 2730.21 381.696   1
   3   6 -14 2349.18 380.218   1
  -3   9 -11 2024.67 306.441  -2
   3   6 -14 2024.67 306.441   1
  -3   9 -10 5716.79 307.442  -2
   3   6 -13 5716.79 307.442   1
   3   6 -12 1616.90 267.459   1
  -3   9  -9 2005.36 307.014  -2
   3   6 -12 2005.36 307.014   1
   3   6 -11 1042.71 178.308   1
  -3   9  -8 4741.36 535.690  -2
   3   6 -11 4741.36 535.690   1
   3   6 -10 4184.25 238.343   1
  -3   9  -7 7211.78 606.527  -2
   3   6 -10 7211.78 606.527   1
   3   6  -9 1347.78 169.241   1
  -3   9  -6 11422.6 708.797  -2
   3   6  -9 11422.6 708.797   1
   3   6  -8 4739.93 353.616   1
  -3   9  -5 5703.72 572.412  -2
   3   6  -8 5703.72 572.412   1
   3   6  -7 3179.31 301.755   1
  -3   9  -4 12803.7 732.160  -2
   3   6  -7 12803.7 732.160   1
   3   6  -6 4866.02 324.246   1
  -3   9  -3 4889.87 538.395  -2
   3   6  -6 4889.87 538.395   1
  -3   9  -2 15855.8 746.461  -2
   3   6  -5 15855.8 746.461   1
  -3   9  -1 4402.53 489.264  -2
   3   6  -4 4402.53 489.264   1
  -3   9   0 11444.5 371.436  -2
   3   6  -3 11444.5 371.436   1
   3   6  -2 4022.05 400.887   1
  -3   9   1 5153.11 367.235  -2
   3   6  -2 5153.11 367.235   1
   3   6  -1 7054.52 300.691   1
   3   6   0 4569.12 265.554   1
   3   6   1 3086.17 385.145   1
  -3   9   4 9040.46 511.033  -2
   3   6   1 9040.46 511.033   1
   3   6   2 1558.24 328.905   1
  -3   9   5 2601.19 394.500  -2
   3   6   2 2601.19 394.500   1
   3   6   3 3404.18 278.984   1
   3   6   4 4021.13 307.100   1
   3   6   5 2522.82 285.154   1
   3   6   6 829.206 333.679   1
  -3   9   9 1838.73 476.862  -2
   3   6   6 1838.73 476.862   1
   3   6   7 2236.88 414.621   1
   3   7 -19 1317.24 451.785   1
   3   7 -18 53.7530 395.021   1
   3   7 -17 1738.82 415.512   1
   3   7 -16 663.121 350.128   1
  -3  10 -13 2557.73 617.808  -2
   3   7 -16 2557.73 617.808   1
   3   7 -15 981.816 294.997   1
  -3  10 -12 1468.11 361.252  -2
   3   7 -15 1468.11 361.252   1
   3   7 -14 440.778 255.989   1
  -3  10 -11 4068.78 405.685  -2
   3   7 -14 4068.78 405.685   1
   3   7 -13 1721.44 214.380   1
  -3  10 -10 1696.94 498.344  -2
   3   7 -13 1696.94 498.344   1
   3   7 -12 995.441 231.541   1
  -3  10  -9 3278.70 349.701  -2
   3   7 -12 3278.70 349.701   1
   3   7 -11 1428.59 232.151   1
  -3  10  -8 2047.80 299.960  -2
   3   7 -11 2047.80 299.960   1
  -3  10  -7 4251.82 338.609  -2
   3   7 -10 4251.82 338.609   1
   3   7  -9 1586.71 259.818   1
  -3  10  -6 1494.83 448.019  -2
   3   7  -9 1494.83 448.019   1
   3   7  -8 1523.39 257.908   1
  -3  10  -5 6008.38 625.632  -2
   3   7  -8 6008.38 625.632   1
   3   7  -7 4508.99 331.288   1
  -3  10  -4 4455.93 582.441  -2
   3   7  -7 4455.93 582.441   1
   3   7  -6 5453.49 343.869   1
  -3  10  -3 16548.4 837.090  -2
   3   7  -6 16548.4 837.090   1
  -3  10  -2 1303.24 449.762  -2
   3   7  -5 1303.24 449.762   1
  -3  10  -1 1250.33 241.891  -2
   3   7  -4 1250.33 241.891   1
  -3  10   0 3616.04 284.857  -2
   3   7  -3 3616.04 284.857   1
   3   7  -2 1114.63 327.439   1
  -3  10   1 4781.57 394.249  -2
   3   7  -2 4781.57 394.249   1
   3   7  -1 1753.62 360.311   1
  -3  10   2 1561.44 335.958  -2
   3   7  -1 1561.44 335.958   1
   3   7   0 4512.17 440.762   1
  -3  10   3 11661.5 564.511  -2
   3   7   0 11661.5 564.511   1
   3   7   1 3589.82 418.586   1
  -3  10   4 4905.84 453.319  -2
   3   7   1 4905.84 453.319   1
   3   7   2 2013.34 251.221   1
   3   7   3 1180.05 231.683   1
   3   7   4 1679.66 258.550   1
   3   7   5 1191.52 369.040   1
  -3  10   8 946.272 459.616  -2
   3   7   5 946.272 459.616   1
   3   7   6 1550.67 393.453   1
  -3  10   9 3117.96 551.162  -2
   3   7   6 3117.96 551.162   1
   3   7   7 1405.75 434.774   1
   3   7   8 453.517 383.163   1
   3   7   9 629.881 441.716   1
   3   7  10 1780.16 485.626   1
   3   8 -18 566.081 379.306   1
   3   8 -17 1020.23 390.165   1
  -3  11 -14 1870.75 652.771  -2
   3   8 -17 1870.75 652.771   1
   3   8 -16 1697.06 386.220   1
  -3  11 -13 1732.82 618.133  -2
   3   8 -16 1732.82 618.133   1
   3   8 -15 480.906 326.452   1
  -3  11 -12 2340.95 600.302  -2
   3   8 -15 2340.95 600.302   1
   3   8 -14 1597.51 363.231   1
  -3  11 -11 1637.43 567.976  -2
   3   8 -14 1637.43 567.976   1
   3   8 -13 616.324 306.654   1
  -3  11 -10 4198.06 654.876  -2
   3   8 -13 4198.06 654.876   1
   3   8 -12 2222.54 326.534   1
  -3  11  -9 2305.20 537.899  -2
   3   8 -12 2305.20 537.899   1
   3   8 -11 1265.24 292.339   1
  -3  11  -8 5820.90 662.856  -2
   3   8 -11 5820.90 662.856   1
   3   8 -10 2011.65 299.801   1
  -3  11  -7 3615.39 567.786  -2
   3   8 -10 3615.39 567.786   1
   3   8  -9 519.612 222.443   1
  -3  11  -6 4097.53 600.770  -2
   3   8  -9 4097.53 600.770   1
   3   8  -8 1877.94 263.990   1
  -3  11  -5 2437.04 565.381  -2
   3   8  -8 2437.04 565.381   1
   3   8  -7 1871.57 250.793   1
  -3  11  -4 9449.99 759.217  -2
   3   8  -7 9449.99 759.217   1
  -3  11  -3 10370.1 749.042  -2
   3   8  -6 10370.1 749.042   1
  -3  11  -2 7832.27 673.688  -2
   3   8  -5 7832.27 673.688   1
  -3  11  -1 5101.82 332.871  -2
   3   8  -4 5101.82 332.871   1
  -3  11   0 5868.19 353.355  -2
   3   8  -3 5868.19 353.355   1
   3   8  -2 2693.65 422.564   1
  -3  11   1 3370.18 391.790  -2
   3   8  -2 3370.18 391.790   1
   3   8  -1 1355.83 371.906   1
  -3  11   2 5193.29 444.264  -2
   3   8  -1 5193.29 444.264   1
   3   8   0 3955.11 485.543   1
  -3  11   3 5836.69 484.356  -2
   3   8   0 5836.69 484.356   1
   3   8   1 4633.82 323.433   1
   3   8   2 2611.03 426.240   1
  -3  11   5 4527.12 506.991  -2
   3   8   2 4527.12 506.991   1
   3   8   3 2092.10 411.507   1
  -3  11   6 4382.25 541.583  -2
   3   8   3 4382.25 541.583   1
   3   8   4 2282.01 442.846   1
  -3  11   7 4617.43 574.505  -2
   3   8   4 4617.43 574.505   1
   3   8   5 1190.72 281.836   1
   3   8   6 619.443 364.925   1
  -3  11   9 1218.47 521.696  -2
   3   8   6 1218.47 521.696   1
   3   8   7 1622.35 465.944   1
  -3  11  10 2303.96 597.022  -2
   3   8   7 2303.96 597.022   1
   3   8   8 848.210 417.025   1
   3   8   9 702.406 440.303   1
   3   9 -17 1195.61 395.674   1
  -3  12 -14 1336.87 612.624  -2
   3   9 -17 1336.87 612.624   1
   3   9 -16 266.035 328.299   1
  -3  12 -13 2555.67 650.142  -2
   3   9 -16 2555.67 650.142   1
   3   9 -15 1368.94 380.746   1
  -3  12 -12 2075.12 620.037  -2
   3   9 -15 2075.12 620.037   1
   3   9 -14 438.997 313.310   1
  -3  12 -11 2759.45 630.582  -2
   3   9 -14 2759.45 630.582   1
   3   9 -13 1761.53 323.299   1
  -3  12 -10 2276.69 606.361  -2
   3   9 -13 2276.69 606.361   1
   3   9 -12 716.283 284.766   1
  -3  12  -9 4521.09 684.113  -2
   3   9 -12 4521.09 684.113   1
   3   9 -11 537.237 245.543   1
  -3  12  -8 986.434 556.460  -2
   3   9 -11 986.434 556.460   1
   3   9 -10 625.293 249.061   1
  -3  12  -7 4226.02 667.910  -2
   3   9 -10 4226.02 667.910   1
   3   9  -9 2634.79 306.659   1
  -3  12  -6 4400.47 642.967  -2
   3   9  -9 4400.47 642.967   1
   3   9  -8 832.918 216.349   1
  -3  12  -5 4463.32 670.433  -2
   3   9  -8 4463.32 670.433   1
  -3  12  -4 1782.21 555.269  -2
   3   9  -7 1782.21 555.269   1
  -3  12  -3 7488.14 708.787  -2
   3   9  -6 7488.14 708.787   1
  -3  12  -2 3212.66 555.769  -2
   3   9  -5 3212.66 555.769   1
  -3  12  -1 3994.74 346.291  -2
   3   9  -4 3994.74 346.291   1
  -3  12   0 1880.73 302.144  -2
   3   9  -3 1880.73 302.144   1
   3   9  -2 1066.34 362.284   1
  -3  12   1 4589.64 459.990  -2
   3   9  -2 4589.64 459.990   1
   3   9  -1 673.452 345.850   1
  -3  12   2 1183.07 393.044  -2
   3   9  -1 1183.07 393.044   1
   3   9   0 1149.37 369.340   1
  -3  12   3 3844.93 468.690  -2
   3   9   0 3844.93 468.690   1
   3   9   1 1814.88 403.442   1
  -3  12   4 2175.32 450.641  -2
   3   9   1 2175.32 450.641   1
   3   9   2 886.201 362.676   1
  -3  12   5 3571.51 523.639  -2
   3   9   2 3571.51 523.639   1
   3   9   3 872.026 378.559   1
  -3  12   6 1347.11 473.990  -2
   3   9   3 1347.11 473.990   1
   3   9   4 1328.30 417.990   1
  -3  12   7 3399.30 583.017  -2
   3   9   4 3399.30 583.017   1
   3   9   5 1087.59 436.814   1
  -3  12   8 979.665 531.891  -2
   3   9   5 979.665 531.891   1
   3   9   6 696.006 433.250   1
  -3  12   9 791.004 575.106  -2
   3   9   6 791.004 575.106   1
   3   9   7 296.627 405.164   1
  -3  12  10 386.301 588.658  -2
   3   9   7 386.301 588.658   1
  -3  13 -13 2129.33 702.058  -2
   3  10 -16 2129.33 702.058   1
  -3  13 -12 3157.17 691.679  -2
   3  10 -15 3157.17 691.679   1
  -3  13 -11 1059.30 594.539  -2
   3  10 -14 1059.30 594.539   1
  -3  13 -10 3483.60 678.503  -2
   3  10 -13 3483.60 678.503   1
  -3  13  -9 2473.18 623.832  -2
   3  10 -12 2473.18 623.832   1
  -3  13  -8 1915.69 617.746  -2
   3  10 -11 1915.69 617.746   1
  -3  13  -7 2888.98 676.541  -2
   3  10 -10 2888.98 676.541   1
  -3  13  -6 6144.29 778.302  -2
   3  10  -9 6144.29 778.302   1
  -3  13  -5 1466.54 606.386  -2
   3  10  -8 1466.54 606.386   1
  -3  13  -4 3220.31 658.896  -2
   3  10  -7 3220.31 658.896   1
  -3  13  -3 2343.94 612.718  -2
   3  10  -6 2343.94 612.718   1
  -3  13  -2 5676.00 418.478  -2
   3  10  -5 5676.00 418.478   1
  -3  13  -1 2110.83 337.932  -2
   3  10  -4 2110.83 337.932   1
  -3  13   0 5073.07 404.284  -2
   3  10  -3 5073.07 404.284   1
  -3  13   1 5406.48 412.914  -2
   3  10  -2 5406.48 412.914   1
   3  10  -1 795.840 400.193   1
  -3  13   2 4737.24 541.409  -2
   3  10  -1 4737.24 541.409   1
   3  10   0 662.842 376.390   1
  -3  13   3 1235.32 437.069  -2
   3  10   0 1235.32 437.069   1
   3  10   1 1869.17 467.558   1
  -3  13   4 3152.02 548.037  -2
   3  10   1 3152.02 548.037   1
   3  10   2 829.234 383.425   1
  -3  13   5 1988.89 534.616  -2
   3  10   2 1988.89 534.616   1
   3  10   3 1159.87 437.524   1
  -3  13   6 3764.38 613.245  -2
   3  10   3 3764.38 613.245   1
   3  10   4 3097.09 548.420   1
  -3  13   7 4115.13 652.176  -2
   3  10   4 4115.13 652.176   1
   3  10   5 1063.65 457.352   1
  -3  13   8 2526.47 637.875  -2
   3  10   5 2526.47 637.875   1
   3  10   6 881.951 329.034   1
  -3  14 -12 2706.65 720.350  -2
   3  11 -15 2706.65 720.350   1
  -3  14 -11 2550.43 680.584  -2
   3  11 -14 2550.43 680.584   1
  -3  14 -10 1738.81 633.585  -2
   3  11 -13 1738.81 633.585   1
  -3  14  -9 2924.99 705.921  -2
   3  11 -12 2924.99 705.921   1
  -3  14  -8 1916.47 637.600  -2
   3  11 -11 1916.47 637.600   1
  -3  14  -7 2063.95 641.030  -2
   3  11 -10 2063.95 641.030   1
  -3  14  -6 1353.67 624.387  -2
   3  11  -9 1353.67 624.387   1
  -3  14  -5 2414.02 653.825  -2
   3  11  -8 2414.02 653.825   1
  -3  14  -4 980.330 590.640  -2
   3  11  -7 980.330 590.640   1
  -3  14  -3 5902.06 756.856  -2
   3  11  -6 5902.06 756.856   1
  -3  14  -2 2481.47 391.141  -2
   3  11  -5 2481.47 391.141   1
  -3  14  -1 2478.08 387.268  -2
   3  11  -4 2478.08 387.268   1
  -3  14   0 995.795 346.918  -2
   3  11  -3 995.795 346.918   1
   3  11  -2-114.549 406.876   1
  -3  14   1 2156.73 500.545  -2
   3  11  -2 2156.73 500.545   1
  -3  14   2 2066.56 389.546  -2
   3  11  -1 2066.56 389.546   1
  -3  14   3 3722.53 441.919  -2
   3  11   0 3722.53 441.919   1
   3  11   1 1913.93 497.390   1
  -3  14   4 3313.53 591.716  -2
   3  11   1 3313.53 591.716   1
   3  11   2 550.412 421.410   1
  -3  14   5 3200.66 621.430  -2
   3  11   2 3200.66 621.430   1
   3  11   3 1182.17 495.869   1
  -3  14   6 1277.07 575.950  -2
   3  11   3 1277.07 575.950   1
   3  11   4 922.914 324.558   1
  -3  15 -10 2947.86 783.742  -2
   3  12 -13 2947.86 783.742   1
  -3  15  -9 2375.21 722.129  -2
   3  12 -12 2375.21 722.129   1
  -3  15  -8 2327.74 725.662  -2
   3  12 -11 2327.74 725.662   1
  -3  15  -7 725.371 690.027  -2
   3  12 -10 725.371 690.027   1
  -3  15  -6 2033.58 722.464  -2
   3  12  -9 2033.58 722.464   1
  -3  15  -5 2052.16 730.356  -2
   3  12  -8 2052.16 730.356   1
  -3  15  -4 3894.73 768.888  -2
   3  12  -7 3894.73 768.888   1
  -3  15  -3 2764.64 421.091  -2
   3  12  -6 2764.64 421.091   1
  -3  15  -2 4894.16 478.970  -2
   3  12  -5 4894.16 478.970   1
  -3  15  -1 1540.96 395.247  -2
   3  12  -4 1540.96 395.247   1
  -3  15   0 2423.29 426.223  -2
   3  12  -3 2423.29 426.223   1
  -3  15   1 1610.93 408.338  -2
   3  12  -2 1610.93 408.338   1
  -3  15   2 2811.42 436.870  -2
   3  12  -1 2811.42 436.870   1
  -3  15   3 1752.56 423.714  -2
   3  12   0 1752.56 423.714   1
   3  12   1 675.061 315.692   1
   3  13 -10 264.508 533.006   1
  -3  16  -6 1081.82 754.352  -2
   3  13  -9 1081.82 754.352   1
  -3  16  -5 1045.62 743.312  -2
   3  13  -8 1045.62 743.312   1
  -3  16  -4 136.023 721.444  -2
   3  13  -7 136.023 721.444   1
  -3  16  -3 2145.43 765.096  -2
   3  13  -6 2145.43 765.096   1
  -3  16  -2 1985.60 731.120  -2
   3  13  -5 1985.60 731.120   1
   3  13  -4 1107.38 400.502   1
  -3  16  -1 3378.72 761.968  -2
   3  13  -4 3378.72 761.968   1
   3  13  -3 1485.04 342.240   1
   4 -15  -3 581.425 326.924   1
   4 -15  -2 819.079 332.279   1
   4 -15  -1 1597.87 352.797   1
   4 -15   0 407.698 233.582   1
   4 -15   1 659.631 250.313   1
   4 -15   2 1323.20 263.090   1
   4 -15   3 1095.90 256.240   1
   4 -15   4 1347.84 272.380   1
   4 -15   5 1197.27 344.064   1
  -4 -11   9 2191.17 600.294  -2
   4 -15   5 2191.17 600.294   1
   4 -15   6 343.292 435.339   1
  -4 -11  10 110.654 403.074  -2
   4 -15   6 110.654 403.074   1
   4 -15   7 1189.48 509.686   1
  -4 -11  11 2317.87 445.455  -2
   4 -15   7 2317.87 445.455   1
   4 -15   8 692.043 341.162   1
  -4 -11  12 1464.23 582.634  -2
   4 -15   8 1464.23 582.634   1
   4 -14  -6 2443.75 375.260   1
   4 -14  -5 1401.92 330.982   1
   4 -14  -4 1743.52 343.998   1
   4 -14  -3 1142.99 315.400   1
   4 -14  -2 918.284 300.908   1
   4 -14  -1 1462.67 250.369   1
   4 -14   0 1227.42 244.003   1
   4 -14   1 1185.49 248.237   1
   4 -14   2 1592.31 257.000   1
   4 -14   3 2191.80 278.301   1
   4 -14   4 651.640 229.761   1
   4 -14   5 1353.51 311.754   1
  -4 -10   9 1486.15 544.590  -2
   4 -14   5 1486.15 544.590   1
   4 -14   6 611.422 300.592   1
  -4 -10  10 1902.41 538.023  -2
   4 -14   6 1902.41 538.023   1
   4 -14   7 800.531 324.947   1
  -4 -10  11 1465.68 533.835  -2
   4 -14   7 1465.68 533.835   1
   4 -14   8 350.670 404.189   1
  -4 -10  12 2668.18 449.380  -2
   4 -14   8 2668.18 449.380   1
   4 -14   9 1167.28 339.866   1
  -4 -10  13 1545.09 592.403  -2
   4 -14   9 1545.09 592.403   1
   4 -14  10 553.868 325.276   1
  -4 -10  14 2221.30 613.821  -2
   4 -14  10 2221.30 613.821   1
   4 -14  11 411.869 326.767   1
  -4 -10  15 729.889 622.685  -2
   4 -14  11 729.889 622.685   1
   4 -13  -8 808.012 284.655   1
   4 -13  -7 364.624 298.959   1
   4 -13  -6 1022.02 301.345   1
   4 -13  -5 1360.83 308.129   1
   4 -13  -4 1516.31 319.290   1
   4 -13  -3 3484.97 369.346   1
   4 -13  -2 1161.22 223.714   1
   4 -13  -1 458.732 193.207   1
   4 -13   0 835.522 204.971   1
   4 -13   1 2230.35 248.480   1
   4 -13   2 2178.44 252.509   1
   4 -13   3 2765.94 269.075   1
   4 -13   4 1868.39 315.350   1
  -4  -9   8 1829.89 488.369  -2
   4 -13   4 1829.89 488.369   1
   4 -13   5 1317.85 287.123   1
  -4  -9   9 6117.19 673.485  -2
   4 -13   5 6117.19 673.485   1
   4 -13   6 1750.90 437.327   1
  -4  -9  10 2106.80 395.481  -2
   4 -13   6 2106.80 395.481   1
   4 -13   7 1281.14 435.358   1
  -4  -9  11 3140.29 418.365  -2
   4 -13   7 3140.29 418.365   1
   4 -13   8 890.058 317.615   1
  -4  -9  12 1564.59 555.581  -2
   4 -13   8 1564.59 555.581   1
   4 -13   9 479.964 409.378   1
  -4  -9  13 3443.44 464.299  -2
   4 -13   9 3443.44 464.299   1
   4 -13  10 596.011 370.187   1
  -4  -9  14 1374.75 424.396  -2
   4 -13  10 1374.75 424.396   1
   4 -13  11 500.627 395.414   1
  -4  -9  15 2026.03 463.071  -2
   4 -13  11 2026.03 463.071   1
   4 -13  12 1128.37 330.336   1
  -4  -9  16 1585.91 612.469  -2
   4 -13  12 1585.91 612.469   1
   4 -12 -10 1666.93 269.066   1
   4 -12  -9 382.732 224.954   1
   4 -12  -8 1345.33 240.646   1
   4 -12  -7 1127.33 224.267   1
   4 -12  -6 1349.10 230.258   1
   4 -12  -5 2021.99 242.206   1
   4 -12  -4 3611.69 349.334   1
   4 -12  -3 848.316 196.844   1
   4 -12  -2 1222.08 203.309   1
   4 -12  -1 2093.59 224.719   1
   4 -12   0 1623.07 227.504   1
   4 -12   1 2515.22 242.331   1
   4 -12   2 2723.25 243.413   1
   4 -12   3 1758.05 229.842   1
   4 -12   4 1863.15 236.210   1
   4 -12   5 1683.49 293.645   1
  -4  -8   9 1756.70 446.352  -2
   4 -12   5 1756.70 446.352   1
   4 -12   6 725.092 269.942   1
  -4  -8  10 2461.23 477.741  -2
   4 -12   6 2461.23 477.741   1
   4 -12   7 357.456 265.666   1
  -4  -8  11 327.815 441.439  -2
   4 -12   7 327.815 441.439   1
   4 -12   8 871.890 280.659   1
  -4  -8  12 2699.58 536.183  -2
   4 -12   8 2699.58 536.183   1
   4 -12   9 1296.56 298.582   1
  -4  -8  13 1572.42 509.286  -2
   4 -12   9 1572.42 509.286   1
   4 -12  10 1056.23 305.491   1
  -4  -8  14 3280.74 614.265  -2
   4 -12  10 3280.74 614.265   1
   4 -12  11 812.334 296.630   1
  -4  -8  15 1411.17 577.685  -2
   4 -12  11 1411.17 577.685   1
   4 -12  12 533.504 339.985   1
  -4  -8  16 2783.62 462.848  -2
   4 -12  12 2783.62 462.848   1
   4 -12  13 838.712 319.546   1
  -4  -8  17 1279.90 588.220  -2
   4 -12  13 1279.90 588.220   1
   4 -11 -12 521.731 323.125   1
   4 -11 -11 1108.89 325.969   1
   4 -11 -10 587.874 224.184   1
   4 -11  -9 1454.68 241.631   1
   4 -11  -8 380.643 199.213   1
   4 -11  -7 2196.64 242.805   1
   4 -11  -6 594.842 190.476   1
   4 -11  -5 2344.36 236.766   1
   4 -11  -4 1566.33 168.292   1
   4 -11  -3 3734.21 243.547   1
   4 -11  -2 1004.26 159.588   1
   4 -11  -1 5220.18 240.209   1
   4 -11   0 511.788 148.382   1
   4 -11   1 2607.70 201.175   1
   4 -11   2 1106.18 167.416   1
   4 -11   3 2439.78 198.963   1
   4 -11   4 1627.64 186.626   1
   4 -11   5 2777.66 245.013   1
   4 -11   6 1656.05 221.957   1
   4 -11   7 2156.90 241.424   1
   4 -11   8 916.749 348.814   1
  -4  -7  12 840.717 346.103  -2
   4 -11   8 840.717 346.103   1
   4 -11   9 1107.61 280.253   1
  -4  -7  13 3754.74 558.554  -2
   4 -11   9 3754.74 558.554   1
   4 -11  10 3084.80 438.570   1
  -4  -7  14 3771.29 452.759  -2
   4 -11  10 3771.29 452.759   1
   4 -11  11 1164.00 297.935   1
  -4  -7  15 3189.36 613.877  -2
   4 -11  11 3189.36 613.877   1
   4 -11  12 1391.36 297.822   1
   4 -11  13 822.256 284.158   1
   4 -11  14 616.848 481.531   1
   4 -10 -13 348.831 323.523   1
   4 -10 -12 1076.86 331.929   1
   4 -10 -11 567.474 173.815   1
   4 -10 -10 1342.82 194.932   1
   4 -10  -9 306.713 160.107   1
   4 -10  -8 1496.33 174.237   1
   4 -10  -7 1042.03 161.868   1
   4 -10  -6 3051.64 179.164   1
   4 -10  -5 2569.49 160.030   1
   4 -10  -4 3283.64 171.614   1
   4 -10  -3 2569.59 176.453   1
   4 -10  -2 3868.65 201.518   1
   4 -10  -1 3430.10 196.118   1
   4 -10   0 1101.32 155.198   1
   4 -10   1 1798.98 166.072   1
   4 -10   2 4132.61 219.340   1
   4 -10   3 5066.52 235.823   1
   4 -10   4 3761.20 217.218   1
   4 -10   5 2522.40 227.822   1
  -4  -6   9 2768.64 428.336  -2
   4 -10   5 2768.64 428.336   1
   4 -10   6 1185.13 166.198   1
   4 -10   7 1511.23 210.136   1
  -4  -6  11 1023.14 398.127  -2
   4 -10   7 1023.14 398.127   1
   4 -10   8 1440.34 200.737   1
  -4  -6  12 2860.85 566.184  -2
   4 -10   8 2860.85 566.184   1
   4 -10   9 573.566 245.333   1
  -4  -6  13 1737.88 462.949  -2
   4 -10   9 1737.88 462.949   1
   4 -10  10 1464.01 283.392   1
   4 -10  11 1272.57 268.866   1
   4 -10  12 895.102 276.977   1
   4 -10  13 915.321 490.886   1
   4 -10  14 694.696 453.637   1
   4 -10  15 516.332 480.191   1
   4  -9 -14-0.16148 240.842   1
   4  -9 -13 1885.78 270.549   1
   4  -9 -12 322.063 218.756   1
   4  -9 -11 2161.42 205.414   1
   4  -9 -10 934.463 168.227   1
   4  -9  -9 1933.07 160.261   1
   4  -9  -8 889.168 140.235   1
   4  -9  -7 3104.76 173.976   1
   4  -9  -6 1321.88 112.629   1
   4  -9  -5 3569.16 161.601   1
   4  -9  -4 1702.09 147.559   1
  -4  -5   0 2625.51 416.639  -2
   4  -9  -4 2625.51 416.639   1
   4  -9  -3 8045.51 245.375   1
   4  -9  -2 514.640 130.537   1
   4  -9  -1 3642.77 190.119   1
   4  -9   0 4625.37 205.411   1
   4  -9   1 5985.20 228.632   1
   4  -9   2 1812.75 167.949   1
   4  -9   3 4243.00 210.650   1
   4  -9   4 1413.86 157.167   1
   4  -9   5 4176.99 212.347   1
   4  -9   6 4123.12 214.722   1
   4  -9   7 1710.54 207.186   1
  -4  -5  11 7340.43 546.383  -2
   4  -9   7 7340.43 546.383   1
   4  -9   8 959.090 154.920   1
   4  -9   9 1465.41 195.826   1
   4  -9  10 1535.93 200.678   1
   4  -9  11 1436.13 277.668   1
   4  -9  12 1443.33 271.484   1
   4  -9  13 875.165 467.004   1
   4  -9  14 556.394 462.515   1
  -4  -5  19 1321.22 685.407  -2
   4  -9  15 1321.22 685.407   1
   4  -8 -15 566.860 251.531   1
   4  -8 -14 1220.40 254.971   1
   4  -8 -13 159.379 222.989   1
   4  -8 -12 2310.25 255.657   1
   4  -8 -11 1629.11 155.920   1
   4  -8 -10 2636.34 173.312   1
   4  -8  -9 812.017 134.419   1
   4  -8  -8 1934.47 155.819   1
   4  -8  -7 1846.76 147.199   1
   4  -8  -6 2961.95 128.342   1
   4  -8  -5 1018.61 100.254   1
   4  -8  -4 5562.95 176.559   1
   4  -8  -3 2533.80 152.044   1
   4  -8  -2 6389.21 210.491   1
   4  -8  -1 1332.51 137.310   1
   4  -8   0 2551.94 163.791   1
   4  -8   1 1106.83 117.162   1
   4  -8   2 3633.12 151.637   1
   4  -8   3 1334.50 117.858   1
   4  -8   4 5446.17 214.984   1
   4  -8   5 160.080 122.181   1
   4  -8   6 2651.55 174.632   1
   4  -8   7 2838.76 181.202   1
   4  -8   8 2144.52 206.498   1
   4  -8   9 241.891 156.850   1
   4  -8  10 1425.97 186.519   1
   4  -8  11 514.644 167.605   1
   4  -8  12 1140.75 316.129   1
  -4  -4  16 4800.63 684.713  -2
   4  -8  12 4800.63 684.713   1
  -4  -4  17 2123.55 619.945  -2
   4  -8  13 2123.55 619.945   1
   4  -8  14 937.203 476.270   1
   4  -8  15 844.631 449.322   1
   4  -7 -16 116.725 314.749   1
   4  -7 -15 519.155 255.864   1
   4  -7 -14 117.973 228.670   1
   4  -7 -13 2183.36 259.085   1
   4  -7 -12 52.3575 124.609   1
   4  -7 -11 1930.40 158.290   1
   4  -7 -10 1533.69 144.030   1
   4  -7  -9 4303.54 187.345   1
   4  -7  -8 260.598 114.406   1
   4  -7  -7 2988.81 111.389   1
   4  -7  -6 339.791 76.9841   1
   4  -7  -5 8545.52 175.672   1
   4  -7  -4 4989.91 161.300   1
   4  -7  -3 5493.29 183.713   1
   4  -7  -2 1552.11 139.075   1
   4  -7  -1 10322.3 267.313   1
   4  -7   0 3255.62 173.481   1
   4  -7   1 9151.69 200.783   1
   4  -7   2 5100.29 153.570   1
   4  -7   3 6004.27 207.477   1
   4  -7   4 6703.64 219.003   1
   4  -7   5 4562.01 195.753   1
   4  -7   6 2722.56 197.294   1
   4  -7   7 5112.74 251.611   1
   4  -7   8 2973.91 212.104   1
   4  -7   9 2616.14 203.122   1
   4  -7  10 4502.18 247.292   1
   4  -7  11 1881.03 197.102   1
   4  -7  12 847.977 178.204   1
   4  -7  13 1105.87 436.964   1
   4  -7  14 1300.56 476.935   1
   4  -7  15 897.854 470.541   1
   4  -7  16-47.7128 452.749   1
   4  -6 -17 628.498 336.241   1
   4  -6 -16 1189.68 324.254   1
   4  -6 -15-130.218 290.019   1
   4  -6 -14 937.505 271.899   1
   4  -6 -13 823.272 215.433   1
   4  -6 -12 3654.74 181.813   1
   4  -6 -11 53.7322 113.687   1
   4  -6 -10 4081.20 180.799   1
   4  -6  -9 2132.81 149.507   1
   4  -6  -8 3437.77 164.743   1
   4  -6  -7 928.588 118.915   1
   4  -6  -6 5268.87 121.363   1
   4  -6  -5 760.148 78.6517   1
   4  -6  -4 5775.00 143.512   1
   4  -6  -3 3600.88 144.951   1
   4  -6  -2 8904.93 226.551   1
   4  -6  -1 463.945 98.2641   1
   4  -6   0 3142.20 155.183   1
   4  -6   1 1124.07 86.0289   1
   4  -6   2 3953.38 126.668   1
   4  -6   3 1573.02 105.305   1
   4  -6   4 5558.40 190.100   1
   4  -6   5 490.256 138.158   1
   4  -6   6 3120.40 198.117   1
   4  -6   7 1974.13 178.359   1
   4  -6   8 1725.77 176.031   1
   4  -6   9 237.268 137.540   1
   4  -6  10 1263.70 167.621   1
   4  -6  11 1097.65 172.700   1
   4  -6  12 1201.90 419.306   1
   4  -6  13 1095.77 421.548   1
   4  -6  14 1126.56 473.263   1
  -4  -2  19 1218.74 609.896  -2
   4  -6  15 1218.74 609.896   1
   4  -6  16 473.744 486.017   1
   4  -5 -17 1026.00 348.847   1
   4  -5 -16 430.510 302.658   1
   4  -5 -15 769.598 287.076   1
   4  -5 -14 419.613 258.169   1
   4  -5 -13 1520.45 189.764   1
   4  -5 -12 256.513 138.300   1
   4  -5 -11 5114.97 191.913   1
   4  -5 -10 2357.45 152.618   1
   4  -5  -9 4191.04 173.497   1
   4  -5  -8 185.179 108.638   1
   4  -5  -7 3411.35 179.143   1
  -4  -1  -3 8523.42 588.664  -2
   4  -5  -7 8523.42 588.664   1
   4  -5  -6 1756.47 123.618   1
   4  -5  -5 4998.60 119.887   1
   4  -5  -4 1361.68 87.0647   1
   4  -5  -3 17443.8 280.418   1
   4  -5  -2 3598.31 144.712   1
   4  -5  -1 8428.47 199.757   1
   4  -5   0 5769.43 173.945   1
   4  -5   1 8112.04 149.541   1
   4  -5   2 1244.40 83.8218   1
   4  -5   3 13522.4 214.321   1
   4  -5   4 7120.36 251.425   1
   4  -5   5 8057.21 270.225   1
   4  -5   6 1401.14 165.362   1
   4  -5   7 2315.62 177.070   1
   4  -5   8 2541.80 189.349   1
   4  -5   9 4769.61 229.662   1
   4  -5  10 645.822 172.680   1
   4  -5  11 3098.18 255.891   1
   4  -5  12 1093.11 425.797   1
  -4  -1  17 3073.71 607.866  -2
   4  -5  13 3073.71 607.866   1
  -4  -1  18 1666.24 602.351  -2
   4  -5  14 1666.24 602.351   1
   4  -5  15 2621.93 538.448   1
   4  -5  16 95.1734 461.722   1
   4  -4 -18 1154.67 350.525   1
   4  -4 -17 49.7028 295.454   1
   4  -4 -16 2297.18 350.288   1
   4  -4 -15 328.812 260.758   1
   4  -4 -14 1340.84 279.028   1
   4  -4 -13 799.495 156.495   1
   4  -4 -12 5021.06 248.970   1
   4  -4 -11 683.117 148.394   1
   4  -4 -10 5691.59 254.288   1
   4  -4  -9 1241.79 147.112   1
   4  -4  -8 6494.16 255.045   1
  -4   0  -4 9515.18 613.764  -2
   4  -4  -8 9515.18 613.764   1
   4  -4  -7 802.971 117.619   1
   4  -4  -6 5749.67 193.225   1
   4  -4  -5 554.251 67.6418   1
   4  -4  -4 8955.86 165.846   1
   4  -4  -3 3186.20 127.613   1
   4  -4  -2 11596.6 211.759   1
   4  -4  -1 227.964 69.8993   1
   4  -4   0 6863.45 157.926   1
   4  -4   1 3003.02 88.8632   1
   4  -4   2 997.013 73.9582   1
   4  -4   3 992.462 101.703   1
   4  -4   4 6633.15 241.675   1
   4  -4   5 365.301 131.169   1
   4  -4   6 4006.61 211.111   1
   4  -4   7 1744.58 203.999   1
   4  -4   8 1550.21 200.779   1
   4  -4   9 1039.68 186.160   1
   4  -4  10 2063.86 215.099   1
   4  -4  11 1472.07 202.019   1
   4  -4  12 1233.36 409.588   1
   4  -4  13 350.646 376.672   1
   4  -4  14 658.156 419.489   1
   4  -4  15 1652.35 501.206   1
   4  -4  16 1108.72 490.844   1
   4  -3 -18 233.263 299.458   1
   4  -3 -17 900.668 316.070   1
   4  -3 -16 1273.50 308.865   1
   4  -3 -15 1220.19 282.220   1
   4  -3 -14 189.697 234.416   1
   4  -3 -13 1331.47 172.605   1
   4  -3 -12 1067.10 166.744   1
   4  -3 -11 2018.73 190.674   1
   4  -3 -10 586.718 145.703   1
   4  -3  -9 7208.59 269.214   1
   4  -3  -8 1048.02 147.629   1
   4  -3  -7 6646.68 244.548   1
   4  -3  -6 950.451 138.775   1
   4  -3  -5 8022.27 167.414   1
   4  -3  -4 1955.95 98.5179   1
   4  -3  -3 6116.47 193.571   1
   4  -3  -2 6809.47 150.175   1
   4  -3  -1 22338.8 432.025   1
   4  -3   0 534.962 145.287   1
   4  -3   1 10658.5 191.009   1
   4  -3   2 6569.78 131.797   1
   4  -3   3 7903.54 166.473   1
   4  -3   4 8340.33 221.063   1
   4  -3   5 11301.7 374.173   1
   4  -3   6 1521.42 197.230   1
   4  -3   7 6212.94 305.679   1
   4  -3   8 3896.10 260.463   1
   4  -3   9 2742.00 231.962   1
   4  -3  10 1829.78 204.729   1
   4  -3  11 3153.46 480.805   1
   4  -3  12 913.402 363.194   1
   4  -3  13 2282.31 463.337   1
   4  -3  14 305.790 441.905   1
   4  -3  15 1042.32 457.422   1
   4  -2 -19-24.7533 315.933   1
   4  -2 -18 1423.01 334.157   1
   4  -2 -17-92.3756 303.761   1
   4  -2 -16 1625.29 314.414   1
   4  -2 -15 624.066 274.627   1
   4  -2 -14 1932.17 184.979   1
   4  -2 -13 78.2906 140.776   1
   4  -2 -12 5886.75 257.490   1
   4  -2 -11 1132.57 161.627   1
   4  -2 -10 8175.18 282.247   1
   4  -2  -9 6275.71 307.909   1
  -4   2  -5 12195.3 645.612  -2
   4  -2  -9 12195.3 645.612   1
   4  -2  -8 7067.69 254.974   1
   4  -2  -7 294.182 63.7905   1
   4  -2  -6 6198.79 149.945   1
   4  -2  -5 345.728 80.6962   1
   4  -2  -4 9871.26 237.026   1
   4  -2  -3 1231.25 148.934   1
   4  -2  -2 10312.3 488.735   1
   4  -2  -1 171.184 208.397   1
   4  -2   0 10139.3 197.928   1
   4  -2   1 140.235 196.310   1
   4  -2   2 3580.51 124.465   1
   4  -2   3 29.7417 76.1552   1
   4  -2   4 2270.61 139.580   1
   4  -2   5 5773.46 286.845   1
   4  -2   6 8020.20 336.765   1
   4  -2   7 460.796 162.146   1
   4  -2   8 1141.84 189.736   1
   4  -2   9 1703.66 205.700   1
   4  -2  10 693.421 171.626   1
   4  -2  11 1597.95 430.924   1
   4  -2  12 2219.31 484.268   1
   4  -2  13 294.736 383.919   1
   4  -2  14 543.407 379.049   1
   4  -2  15 897.624 457.444   1
   4  -1 -19 939.306 336.000   1
   4  -1 -18 69.5537 293.924   1
   4  -1 -17 581.516 294.836   1
   4  -1 -16 155.484 256.573   1
   4  -1 -15 2432.17 310.232   1
   4  -1 -14 1116.43 164.058   1
   4  -1 -13 1312.80 172.223   1
   4  -1 -12 886.181 161.390   1
   4  -1 -11 5691.43 250.488   1
   4  -1 -10 239.965 75.7107   1
   4  -1  -9 6630.69 163.869   1
   4  -1  -8 5711.97 162.135   1
   4  -1  -7 10098.2 201.363   1
   4  -1  -6 4235.85 145.633   1
   4  -1  -5 11652.9 248.784   1
   4  -1  -4 1647.78 95.6879   1
   4  -1  -3 18555.3 307.334   1
   4  -1  -2 8645.18 224.312   1
   4  -1  -1 10819.1 243.346   1
   4  -1   0 1580.39 122.119   1
   4  -1   1 11547.1 160.214   1
   4  -1   2 963.165 95.5070   1
   4  -1   3 7852.79 226.409   1
   4  -1   4 3314.49 175.052   1
   4  -1   5 6994.80 420.806   1
   4  -1   6 1669.08 259.954   1
   4  -1   7 5831.69 303.680   1
   4  -1   8 832.814 180.877   1
   4  -1   9 1876.04 209.548   1
   4  -1  10 102.278 150.446   1
   4  -1  11 1847.48 406.562   1
   4  -1  12 1971.11 423.323   1
   4  -1  13 2881.85 519.484   1
   4  -1  14 303.731 409.228   1
   4  -1  15 1139.53 487.168   1
   4   0 -19 10.7523 307.228   1
   4   0 -18 2449.14 373.965   1
   4   0 -17 149.450 268.965   1
   4   0 -16 1516.66 302.425   1
   4   0 -15 868.573 251.910   1
   4   0 -14 2298.73 202.438   1
   4   0 -13 577.745 147.820   1
   4   0 -12 2394.22 201.832   1
   4   0 -11 616.064 147.192   1
   4   0 -10 4985.25 171.955   1
   4   0  -9 81.8417 74.6444   1
   4   0  -8 8259.30 205.293   1
   4   0  -7 826.234 87.0860   1
   4   0  -6 3005.10 143.679   1
   4   0  -5 24.0321 90.4691   1
   4   0  -4 7504.69 214.861   1
   4   0  -3 2561.69 168.526   1
   4   0  -2 7384.76 241.380   1
   4   0  -1 1761.43 145.685   1
   4   0   0 13355.5 314.955   1
   4   0   1 318.383 75.9044   1
   4   0   2 6496.56 209.925   1
   4   0   3 397.097 107.034   1
   4   0   4 3455.24 331.521   1
   4   0   5 1826.36 278.323   1
   4   0   6 5169.41 376.582   1
   4   0   7 112.860 210.724   1
   4   0   8 7181.99 416.801   1
   4   0   9 2330.55 278.610   1
   4   0  10 1493.33 396.871   1
   4   0  11 849.035 389.016   1
   4   0  12 1572.84 440.242   1
   4   0  13 322.299 406.862   1
   4   0  14 981.458 431.586   1
   4   1 -19 510.829 307.472   1
   4   1 -18-7.75798 299.989   1
   4   1 -17 854.113 284.280   1
   4   1 -16 287.106 248.460   1
   4   1 -15 1259.21 184.666   1
   4   1 -14 18.1604 147.314   1
   4   1 -13 3311.33 220.996   1
   4   1 -12 917.101 158.412   1
   4   1 -11 3763.29 219.095   1
   4   1 -10 688.456 149.333   1
   4   1  -9 7207.62 187.286   1
   4   1  -8 3224.96 111.265   1
   4   1  -7 15554.4 290.789   1
   4   1  -6 919.021 126.936   1
   4   1  -5 12194.0 288.388   1
   4   1  -4 756.897 144.413   1
   4   1  -3 11490.9 330.203   1
   4   1  -2 2809.89 189.418   1
   4   1  -1 14330.7 355.200   1
   4   1   0 146.204 79.8011   1
   4   1   1 9434.51 220.207   1
   4   1   2 2171.65 135.238   1
   4   1   3 5435.84 401.615   1
   4   1   4 716.719 238.088   1
   4   1   5 2990.07 311.070   1
   4   1   6 3674.21 341.014   1
   4   1   7 4884.14 383.899   1
   4   1   8 240.995 213.612   1
   4   1   9 1989.35 270.405   1
   4   1  11 585.932 359.191   1
   4   1  12 1060.28 456.530   1
   4   1  13 2449.03 503.652   1
   4   1  14 141.988 408.434   1
   4   2 -19 10.5688 303.363   1
   4   2 -18 2036.80 347.104   1
   4   2 -17-63.5754 267.059   1
   4   2 -16 1802.71 287.433   1
   4   2 -15 187.763 159.496   1
   4   2 -14 2742.64 215.847   1
   4   2 -13 32.7468 139.429   1
   4   2 -12 2470.92 199.733   1
   4   2 -11 64.4795 136.772   1
   4   2 -10 4644.77 198.740   1
   4   2  -9 333.191 138.329   1
  -4   6  -5 994.868 170.103  -2
   4   2  -9 994.868 170.103   1
   4   2  -8 6479.35 249.266   1
  -4   6  -4 11238.2 249.246  -2
   4   2  -8 11238.2 249.246   1
   4   2  -7 391.882 126.220   1
   4   2  -6 4191.80 200.505   1
   4   2  -5 599.302 124.168   1
   4   2  -4 4576.01 247.780   1
   4   2  -3 966.565 156.402   1
   4   2  -2 10671.2 337.003   1
   4   2  -1 2131.73 184.401   1
   4   2   0 3870.52 228.055   1
   4   2   1 55.6576 138.314   1
   4   2   2 9986.76 521.512   1
   4   2   3 105.369 156.912   1
   4   2   4 5375.72 410.121   1
   4   2   5 2930.96 326.668   1
   4   2   6 2828.10 339.364   1
   4   2   7 10.0871 224.481   1
   4   2   8 3413.12 335.622   1
   4   2   9 1041.68 248.865   1
   4   2  12 1072.21 422.870   1
   4   2  13 971.540 451.774   1
   4   3 -19 415.039 305.759   1
   4   3 -18-31.1242 276.715   1
   4   3 -17 1318.78 278.510   1
   4   3 -16 50.3890 228.733   1
   4   3 -15 1281.83 188.973   1
   4   3 -14 2302.05 207.935   1
   4   3 -13 2209.05 203.935   1
   4   3 -12 518.076 127.490   1
   4   3 -11 6717.12 237.752   1
   4   3 -10 139.958 118.783   1
   4   3  -9 5725.39 214.099   1
   4   3  -8 1511.26 148.821   1
   4   3  -7 9319.99 366.121   1
   4   3  -6 2086.59 84.2479   1
   4   3  -5 11135.7 176.348   1
   4   3  -4 375.921 79.7206   1
   4   3  -3 12336.9 399.132   1
   4   3  -2 563.185 248.886   1
   4   3  -1 10212.9 552.389   1
   4   3   0 3778.34 380.900   1
   4   3   1 6723.71 313.597   1
   4   3   2 411.724 161.807   1
   4   3   3 5409.46 293.914   1
   4   3   4 482.505 190.045   1
   4   3   5 2869.14 341.864   1
   4   3   6 2922.35 347.350   1
   4   3   7 1902.41 303.632   1
   4   3   8 209.375 229.959   1
   4   4 -19 409.225 279.268   1
   4   4 -18 823.681 287.814   1
   4   4 -17 166.030 254.563   1
   4   4 -16 2250.15 293.015   1
   4   4 -15 136.567 166.043   1
   4   4 -14 1477.64 194.814   1
   4   4 -13 541.012 142.394   1
   4   4 -12 1580.48 158.898   1
   4   4 -11 378.570 133.340   1
   4   4 -10 4417.07 205.637   1
   4   4  -9 1283.68 164.767   1
   4   4  -8 5189.04 301.188   1
   4   4  -7 221.898 173.190   1
   4   4  -6 5254.90 162.391   1
   4   4  -5 549.799 101.715   1
   4   4  -4 3921.89 202.867   1
   4   4  -3 1243.44 140.045   1
   4   4  -2 4877.63 222.213   1
   4   4  -1 44.4534 134.766   1
   4   4   0 9858.13 337.159   1
   4   4   1 308.945 223.091   1
   4   4   2 2289.12 235.425   1
   4   4   3 553.163 190.664   1
   4   4   4 5131.84 319.241   1
   4   4   5 176.305 184.382   1
   4   4   6 3034.32 272.199   1
   4   4   7 1061.28 296.040   1
   4   4   8 2285.05 333.471   1
   4   5 -19 228.508 273.513   1
   4   5 -18 0.78896 262.087   1
   4   5 -17 1997.51 305.207   1
   4   5 -16 1.07108 185.883   1
   4   5 -15 1953.15 192.441   1
   4   5 -14 298.571 170.692   1
  -4   9 -10 1329.99 454.065  -2
   4   5 -14 1329.99 454.065   1
   4   5 -13 2288.44 212.345   1
  -4   9  -9 3745.37 531.630  -2
   4   5 -13 3745.37 531.630   1
   4   5 -12 513.637 160.336   1
  -4   9  -8 807.781 444.572  -2
   4   5 -12 807.781 444.572   1
   4   5 -11 4197.04 235.222   1
   4   5 -10 233.469 159.906   1
  -4   9  -6 4842.73 533.515  -2
   4   5 -10 4842.73 533.515   1
   4   5  -9 5970.94 335.844   1
   4   5  -8 181.889 180.520   1
   4   5  -7 6497.34 325.835   1
   4   5  -6 468.680 105.600   1
   4   5  -5 8993.81 273.379   1
   4   5  -4 3209.85 193.329   1
   4   5  -3 5059.49 239.804   1
   4   5  -2 1041.82 164.249   1
   4   5  -1 5016.13 271.076   1
   4   5   0 485.632 169.807   1
   4   5   1 5309.04 299.220   1
   4   5   2 1527.43 226.950   1
   4   5   3 3075.84 388.278   1
   4   5   4 392.242 190.194   1
   4   5   5 2466.17 273.728   1
   4   5   6 704.287 232.986   1
   4   5   7 1797.62 263.931   1
   4   5   8 122.827 324.288   1
   4   6 -18 221.677 394.778   1
   4   6 -17 323.084 239.708   1
   4   6 -16 1343.88 215.398   1
  -4  10 -12 1673.21 558.995  -2
   4   6 -16 1673.21 558.995   1
   4   6 -15 20.3157 174.773   1
  -4  10 -11 1463.87 546.683  -2
   4   6 -15 1463.87 546.683   1
   4   6 -14 2185.79 221.445   1
  -4  10 -10 2947.27 562.620  -2
   4   6 -14 2947.27 562.620   1
   4   6 -13 283.896 181.182   1
  -4  10  -9 1065.89 472.357  -2
   4   6 -13 1065.89 472.357   1
   4   6 -12 912.894 199.878   1
  -4  10  -8 3874.93 533.322  -2
   4   6 -12 3874.93 533.322   1
   4   6 -11-33.5277 260.686   1
  -4  10  -7 1364.78 458.396  -2
   4   6 -11 1364.78 458.396   1
   4   6 -10 4504.64 309.771   1
   4   6  -9 83.6068 232.819   1
  -4  10  -5 3045.40 506.430  -2
   4   6  -9 3045.40 506.430   1
   4   6  -8 4744.95 306.169   1
   4   6  -7 501.042 201.593   1
   4   6  -6 6750.22 270.494   1
   4   6  -5 677.171 146.659   1
   4   6  -4 4528.79 241.725   1
   4   6  -3 426.191 149.955   1
   4   6  -2 6248.32 297.930   1
   4   6  -1 164.422 171.039   1
   4   6   0 4562.54 286.192   1
   4   6   1 124.031 182.757   1
   4   6   2 5861.47 338.227   1
   4   6   3 200.019 206.801   1
   4   6   4 2606.84 414.802   1
   4   6   5 159.442 213.319   1
   4   6   6 2005.44 285.351   1
   4   6   7 445.083 235.437   1
   4   6   8 1635.34 458.905   1
   4   6   9-83.8893 391.982   1
   4   7 -18-122.133 413.268   1
   4   7 -17 1106.37 420.941   1
  -4  11 -13 1210.03 570.632  -2
   4   7 -17 1210.03 570.632   1
   4   7 -16 307.082 235.844   1
  -4  11 -12 923.865 537.299  -2
   4   7 -16 923.865 537.299   1
   4   7 -15 2265.10 306.391   1
   4   7 -14 1199.00 350.998   1
  -4  11 -10 3373.72 616.584  -2
   4   7 -14 3373.72 616.584   1
   4   7 -13 2028.07 369.346   1
  -4  11  -9 3111.57 560.310  -2
   4   7 -13 3111.57 560.310   1
   4   7 -12 417.981 269.824   1
  -4  11  -8 1643.81 506.312  -2
   4   7 -12 1643.81 506.312   1
   4   7 -11 2084.69 332.575   1
  -4  11  -7 5066.26 620.886  -2
   4   7 -11 5066.26 620.886   1
   4   7 -10 38.9557 247.076   1
  -4  11  -6 2271.55 523.903  -2
   4   7 -10 2271.55 523.903   1
   4   7  -9 5589.63 339.000   1
   4   7  -8 152.340 196.324   1
  -4  11  -3 4568.51 593.655  -2
   4   7  -7 4568.51 593.655   1
   4   7  -6 51.2022 136.053   1
   4   7  -5 2958.11 228.430   1
   4   7  -4 229.834 158.765   1
   4   7  -3 6425.24 307.301   1
   4   7  -2 871.719 196.028   1
   4   7  -1 2523.30 252.527   1
   4   7   0 488.207 204.325   1
   4   7   1 2145.60 259.981   1
   4   7   2 264.088 217.232   1
   4   7   3 1910.96 291.853   1
   4   7   4 105.516 225.834   1
   4   7   5 2787.20 480.908   1
   4   7   6 352.247 255.190   1
   4   7   7 1808.83 301.248   1
   4   7   8-7.68202 412.357   1
   4   8 -17 274.983 370.046   1
  -4  12 -13 1076.03 591.278  -2
   4   8 -17 1076.03 591.278   1
   4   8 -16 1571.16 407.367   1
  -4  12 -12 1869.65 619.764  -2
   4   8 -16 1869.65 619.764   1
   4   8 -15 153.650 346.152   1
  -4  12 -11 472.694 549.352  -2
   4   8 -15 472.694 549.352   1
   4   8 -14 2056.40 377.881   1
  -4  12 -10 2758.29 632.887  -2
   4   8 -14 2758.29 632.887   1
   4   8 -13 384.318 232.604   1
   4   8 -12 1765.94 329.744   1
  -4  12  -8 3826.28 615.591  -2
   4   8 -12 3826.28 615.591   1
   4   8 -11 96.0628 257.859   1
  -4  12  -7 532.277 525.307  -2
   4   8 -11 532.277 525.307   1
   4   8 -10 1743.00 312.818   1
  -4  12  -6 3070.68 588.501  -2
   4   8 -10 3070.68 588.501   1
   4   8  -9 184.124 209.865   1
  -4  12  -4 6866.98 717.570  -2
   4   8  -8 6866.98 717.570   1
   4   8  -7-156.627 374.867   1
   4   8  -6 5067.16 567.664   1
  -4  12  -2 7021.12 437.894  -2
   4   8  -6 7021.12 437.894   1
   4   8  -5 453.541 183.715   1
   4   8  -4 5526.78 316.170   1
   4   8  -3 125.443 190.012   1
   4   8  -2 2013.61 250.065   1
   4   8  -1 713.114 214.451   1
   4   8   0 4248.75 329.370   1
   4   8   1 10.4800 223.056   1
   4   8   2 2920.11 321.203   1
   4   8   3 260.027 252.942   1
   4   8   4 2070.44 324.734   1
   4   8   5 95.9834 378.245   1
   4   8   6 1417.19 449.597   1
   4   8   7 724.778 463.276   1
   4   9 -16 161.854 354.346   1
  -4  13 -12 1025.97 599.623  -2
   4   9 -16 1025.97 599.623   1
   4   9 -15 1315.29 374.528   1
  -4  13 -11 2313.68 655.048  -2
   4   9 -15 2313.68 655.048   1
   4   9 -14 416.233 333.253   1
  -4  13 -10 1435.70 587.463  -2
   4   9 -14 1435.70 587.463   1
   4   9 -13 1937.91 374.763   1
  -4  13  -9 4193.46 674.965  -2
   4   9 -13 4193.46 674.965   1
  -4  13  -8 1255.06 583.193  -2
   4   9 -12 1255.06 583.193   1
  -4  13  -7 2804.36 633.308  -2
   4   9 -11 2804.36 633.308   1
  -4  13  -6 1955.24 616.319  -2
   4   9 -10 1955.24 616.319   1
  -4  13  -5 4744.75 683.492  -2
   4   9  -9 4744.75 683.492   1
  -4  13  -4 2309.44 602.981  -2
   4   9  -8 2309.44 602.981   1
   4   9  -7 3496.22 548.302   1
   4   9  -6 370.574 405.911   1
   4   9  -5 2800.17 490.926   1
   4   9  -4 99.3394 186.822   1
   4   9  -3 2277.39 267.524   1
   4   9  -2 217.064 216.464   1
   4   9  -1 3176.02 313.481   1
   4   9   0 445.960 250.382   1
   4   9   1 2367.56 327.214   1
   4   9   2 218.771 256.358   1
   4   9   3 2004.37 319.949   1
   4   9   4 329.394 270.326   1
   4   9   5 1245.80 326.717   1
  -4  14 -11 1200.74 643.282  -2
   4  10 -15 1200.74 643.282   1
  -4  14 -10 2625.40 668.204  -2
   4  10 -14 2625.40 668.204   1
  -4  14  -9 1996.03 648.770  -2
   4  10 -13 1996.03 648.770   1
  -4  14  -8 2202.21 638.072  -2
   4  10 -12 2202.21 638.072   1
  -4  14  -7 1549.15 620.339  -2
   4  10 -11 1549.15 620.339   1
  -4  14  -6 2542.30 664.524  -2
   4  10 -10 2542.30 664.524   1
  -4  14  -5 2236.42 658.785  -2
   4  10  -9 2236.42 658.785   1
   4  10  -8 2009.03 550.058   1
   4  10  -7 107.365 437.040   1
   4  10  -6 3660.53 594.162   1
   4  10  -5 1250.94 448.485   1
   4  10  -4 2630.08 505.157   1
   4  10  -3-33.8818 397.464   1
   4  10  -2 4027.24 351.517   1
   4  10  -1 517.798 246.258   1
   4  10   0 1326.63 287.587   1
   4  10   1 212.503 262.778   1
   4  10   2 2443.76 363.445   1
   4  10   3 119.881 294.648   1
   4  11 -13 1896.97 557.570   1
  -4  15  -8 1855.72 699.959  -2
   4  11 -12 1855.72 699.959   1
  -4  15  -7 2868.25 750.892  -2
   4  11 -11 2868.25 750.892   1
  -4  15  -6 327.591 655.621  -2
   4  11 -10 327.591 655.621   1
  -4  15  -5 2961.12 725.061  -2
   4  11  -9 2961.12 725.061   1
  -4  15  -4 739.728 656.607  -2
   4  11  -8 739.728 656.607   1
   4  11  -7 2375.94 558.239   1
   4  11  -6 179.551 464.542   1
   4  11  -5 1994.67 523.463   1
   4  11  -4 413.891 429.139   1
   4  11  -3 2530.25 553.405   1
   4  11  -2 173.926 444.856   1
   4  11  -1 1309.30 512.087   1
   4  11   0 413.329 429.374   1
   4  12  -9-182.644 529.778   1
   4  12  -8 1208.03 549.572   1
   4  12  -7 61.5803 509.724   1
   4  12  -6 2399.71 610.276   1
   4  12  -5 106.665 495.845   1
   4  12  -4 3540.17 650.492   1
   5 -15  -2 109.015 307.385   1
   5 -15  -1 539.652 299.325   1
   5 -15   0 164.871 296.791   1
   5 -15   1 695.660 235.991   1
   5 -15   2 78.9492 231.354   1
   5 -15   3 960.107 271.139   1
   5 -15   4 297.803 247.350   1
   5 -15   5 446.683 250.786   1
   5 -15   6 276.468 243.673   1
   5 -14  -6 2078.06 370.501   1
   5 -14  -5 136.504 281.363   1
   5 -14  -4 2237.90 354.423   1
   5 -14  -3 144.588 287.630   1
   5 -14  -2 1223.61 313.617   1
   5 -14  -1 152.855 267.587   1
   5 -14   0 2714.29 272.982   1
   5 -14   1 273.351 213.452   1
   5 -14   2 1375.10 239.763   1
   5 -14   3 88.4502 218.083   1
   5 -14   4 1459.86 255.824   1
   5 -14   5 111.546 233.616   1
   5 -14   6 569.329 244.752   1
   5 -14   7 499.339 240.723   1
   5 -14   8 788.155 252.550   1
   5 -14   9 812.181 262.777   1
   5 -13  -8 109.584 233.164   1
   5 -13  -7 1946.77 271.941   1
   5 -13  -6 101.530 262.942   1
   5 -13  -5 1231.86 305.713   1
   5 -13  -4 297.142 259.366   1
   5 -13  -3 1828.03 318.712   1
   5 -13  -2 84.2085 242.880   1
   5 -13  -1 938.930 212.073   1
   5 -13   0 162.218 192.630   1
   5 -13   1 349.140 209.576   1
   5 -13   2 274.671 203.169   1
   5 -13   3 2674.82 275.656   1
   5 -13   4 101.434 211.425   1
   5 -13   5 614.241 220.443   1
   5 -13   6 243.451 217.606   1
   5 -13   7 1021.93 240.158   1
   5 -13   8 231.555 290.135   1
  -5  -8  13 1066.51 514.618  -2
   5 -13   8 1066.51 514.618   1
   5 -13   9 966.216 332.861   1
  -5  -8  14 1487.97 549.514  -2
   5 -13   9 1487.97 549.514   1
   5 -13  10 21.7096 316.454   1
  -5  -8  15 1366.70 557.967  -2
   5 -13  10 1366.70 557.967   1
   5 -12 -10 1581.28 269.983   1
   5 -12  -9 21.1926 217.503   1
   5 -12  -8 2172.51 265.238   1
   5 -12  -7 202.088 212.253   1
   5 -12  -6 2768.78 274.509   1
   5 -12  -5 222.258 205.543   1
   5 -12  -4 2222.47 249.902   1
   5 -12  -3 104.677 193.311   1
   5 -12  -2 1819.27 197.517   1
   5 -12  -1-12.4832 160.257   1
   5 -12   0 1288.73 180.581   1
   5 -12   1 284.582 164.108   1
   5 -12   2 365.561 174.387   1
   5 -12   3 389.471 175.130   1
   5 -12   4 2018.84 210.100   1
   5 -12   5 21.5761 164.259   1
   5 -12   6 1120.87 193.622   1
   5 -12   7 151.586 182.807   1
   5 -12   8 629.520 227.170   1
   5 -12   9 480.257 288.882   1
  -5  -7  14 1509.93 520.605  -2
   5 -12   9 1509.93 520.605   1
   5 -12  10 1537.42 327.677   1
  -5  -7  15 1900.20 556.628  -2
   5 -12  10 1900.20 556.628   1
   5 -12  11 698.613 237.097   1
   5 -12  12 875.285 330.037   1
   5 -11 -11 2609.23 291.322   1
   5 -11 -10 96.0375 222.395   1
   5 -11  -9 916.014 224.887   1
   5 -11  -8 76.0044 156.088   1
   5 -11  -7 1492.94 197.164   1
   5 -11  -6 244.187 162.951   1
   5 -11  -5 2123.87 236.292   1
   5 -11  -4 321.008 181.585   1
   5 -11  -3 1455.20 165.596   1
   5 -11  -2 246.846 142.580   1
   5 -11  -1 658.453 149.405   1
   5 -11   0 95.4121 141.403   1
   5 -11   1 2921.14 208.508   1
   5 -11   2 301.831 151.531   1
   5 -11   3 1440.77 181.468   1
   5 -11   4 435.689 164.336   1
   5 -11   5 2058.38 199.817   1
   5 -11   6 373.158 160.410   1
   5 -11   7 2022.64 206.052   1
   5 -11   8 150.893 205.725   1
  -5  -6  13 507.893 426.282  -2
   5 -11   8 507.893 426.282   1
   5 -11   9 750.314 215.857   1
  -5  -6  14 1277.86 460.972  -2
   5 -11   9 1277.86 460.972   1
   5 -11  10 36.8694 253.969   1
  -5  -6  15 933.829 495.805  -2
   5 -11  10 933.829 495.805   1
   5 -11  11 1618.05 335.571   1
  -5  -6  16 2232.21 567.558  -2
   5 -11  11 2232.21 567.558   1
   5 -11  12 199.223 285.142   1
   5 -10 -13 54.7520 247.658   1
   5 -10 -12 1569.64 275.246   1
   5 -10 -11 742.391 168.599   1
   5 -10 -10 3060.83 213.120   1
   5 -10  -9 267.749 153.085   1
   5 -10  -8 1435.96 170.273   1
   5 -10  -7 118.533 154.304   1
   5 -10  -6 4831.12 249.238   1
   5 -10  -5 304.369 168.404   1
   5 -10  -4 3504.32 190.296   1
   5 -10  -3 581.277 132.110   1
   5 -10  -2 1751.76 162.156   1
   5 -10  -1 130.728 132.855   1
   5 -10   0 5276.67 230.982   1
   5 -10   1 438.900 143.955   1
   5 -10   2 2370.96 187.897   1
   5 -10   3 1508.72 168.301   1
   5 -10   4 1749.43 178.665   1
   5 -10   5 146.817 143.530   1
   5 -10   6 630.984 156.565   1
   5 -10   7 108.385 147.814   1
   5 -10   8 2685.28 214.717   1
   5 -10   9 734.423 173.525   1
   5 -10  10 1857.63 244.970   1
  -5  -5  15 2894.03 500.311  -2
   5 -10  10 2894.03 500.311   1
   5 -10  11 358.382 181.774   1
   5 -10  12 1319.94 299.557   1
   5 -10  13 349.133 455.592   1
   5  -9 -14 321.533 254.529   1
   5  -9 -13 2162.46 285.864   1
   5  -9 -12 715.178 160.384   1
   5  -9 -11 2318.77 197.370   1
   5  -9 -10 488.774 146.738   1
   5  -9  -9 2546.75 180.968   1
   5  -9  -8 251.867 134.561   1
   5  -9  -7 1682.46 159.841   1
   5  -9  -6 714.567 150.478   1
   5  -9  -5 2069.66 197.921   1
   5  -9  -4 383.617 120.338   1
   5  -9  -3 3779.12 184.117   1
   5  -9  -2 1098.88 138.714   1
   5  -9  -1 558.698 128.853   1
   5  -9   0 1074.11 141.542   1
   5  -9   1 537.242 132.932   1
   5  -9   2 296.344 128.098   1
   5  -9   3 1307.83 155.834   1
   5  -9   4 398.247 133.622   1
   5  -9   5 2017.37 176.322   1
   5  -9   6 723.913 148.392   1
   5  -9   7 1248.10 171.056   1
   5  -9   8 106.357 148.359   1
   5  -9   9 873.692 169.837   1
   5  -9  10 68.5346 179.901   1
   5  -9  11 2613.64 256.934   1
   5  -9  12 135.899 424.224   1
   5  -9  13 638.229 454.448   1
   5  -9  14 562.148 503.504   1
   5  -8 -15 482.179 328.846   1
   5  -8 -14 2370.49 296.580   1
   5  -8 -13 262.557 228.592   1
   5  -8 -12 2518.01 194.423   1
   5  -8 -11 683.600 148.052   1
   5  -8 -10 2396.85 180.366   1
   5  -8  -9 1041.76 148.800   1
   5  -8  -8 2898.19 178.768   1
   5  -8  -7 129.814 127.169   1
   5  -8  -6 2659.40 163.970   1
   5  -8  -5 75.2530 92.7049   1
   5  -8  -4 1977.39 143.454   1
   5  -8  -3 112.059 109.555   1
   5  -8  -2 4641.23 193.514   1
   5  -8  -1 905.786 129.554   1
   5  -8   0 717.533 126.601   1
   5  -8   1 132.714 110.437   1
   5  -8   2 3188.60 174.597   1
   5  -8   3 159.556 120.307   1
   5  -8   4 5310.64 216.685   1
   5  -8   5 498.800 131.803   1
   5  -8   6 1643.17 159.709   1
   5  -8   7 44.9730 131.558   1
   5  -8   8 2365.89 221.008   1
   5  -8   9 45.0484 167.497   1
   5  -8  10 2177.36 230.702   1
   5  -8  11 36.2871 175.849   1
   5  -8  12 3671.52 605.899   1
   5  -8  13 275.473 436.309   1
   5  -8  14 1762.14 549.031   1
   5  -7 -16 207.175 336.767   1
   5  -7 -15 1440.09 344.115   1
   5  -7 -14 341.988 294.318   1
   5  -7 -13 2767.42 280.997   1
   5  -7 -12 628.485 144.215   1
   5  -7 -11 3608.98 193.764   1
   5  -7 -10 950.252 143.841   1
   5  -7  -9 2821.63 177.632   1
   5  -7  -8 956.421 137.850   1
   5  -7  -7 2333.53 154.771   1
   5  -7  -6 1044.56 86.7442   1
   5  -7  -5 3433.10 150.323   1
   5  -7  -4 1674.41 128.057   1
   5  -7  -3 2873.34 151.862   1
   5  -7  -2 1167.26 142.137   1
   5  -7  -1 3176.87 153.109   1
   5  -7   0 723.261 111.808   1
   5  -7   1 5557.10 191.643   1
   5  -7   2 1079.65 120.678   1
   5  -7   3 953.187 120.180   1
   5  -7   4 129.996 114.473   1
   5  -7   5 4262.23 195.762   1
   5  -7   6 271.033 123.170   1
   5  -7   7 1826.52 196.092   1
   5  -7   8 144.371 158.653   1
   5  -7   9 2144.25 218.685   1
   5  -7  10 570.196 174.218   1
   5  -7  11 1998.89 272.417   1
   5  -7  12 50.4351 426.876   1
   5  -7  13 1718.36 492.100   1
   5  -7  14 425.932 450.075   1
   5  -6 -16 1395.57 345.353   1
   5  -6 -15 1543.12 336.053   1
   5  -6 -14 966.692 310.246   1
   5  -6 -13 164.953 184.900   1
   5  -6 -12 2542.37 231.901   1
   5  -6 -11 415.907 149.944   1
   5  -6 -10 1929.21 158.210   1
   5  -6  -9 1280.41 141.970   1
   5  -6  -8 2121.79 153.603   1
   5  -6  -7 167.102 116.549   1
   5  -6  -6 3226.09 110.258   1
   5  -6  -5 1129.65 108.352   1
   5  -6  -4 2297.55 130.017   1
   5  -6  -3 536.158 94.7351   1
   5  -6  -2 3719.64 177.714   1
   5  -6  -1 171.096 85.1593   1
   5  -6   0 1089.20 104.860   1
   5  -6   1 386.478 96.0998   1
   5  -6   2 3492.88 115.243   1
   5  -6   3 491.645 81.5798   1
   5  -6   4 1353.40 128.089   1
   5  -6   5 63.2737 107.848   1
   5  -6   6 2647.17 207.708   1
   5  -6   7 519.523 156.036   1
   5  -6   8 3650.82 236.674   1
   5  -6   9 168.978 197.374   1
   5  -6  10 1896.01 252.509   1
   5  -6  11 220.867 208.669   1
   5  -6  12 4091.06 592.614   1
   5  -6  13 37.0247 417.419   1
   5  -6  14 2299.57 560.656   1
   5  -5 -17 2473.30 386.436   1
   5  -5 -16 261.948 321.925   1
   5  -5 -15 1955.69 350.399   1
   5  -5 -14 1141.08 303.644   1
   5  -5 -13 2213.29 226.632   1
   5  -5 -12 1119.95 191.922   1
   5  -5 -11 4147.70 249.933   1
   5  -5 -10 1239.39 185.611   1
   5  -5  -9 3912.09 208.804   1
   5  -5  -8 3416.45 173.298   1
   5  -5  -7 1857.80 141.696   1
   5  -5  -6 715.888 78.7286   1
   5  -5  -5 5360.66 152.128   1
   5  -5  -4 1987.38 101.607   1
   5  -5  -3 2060.83 116.317   1
   5  -5  -2 1609.44 115.875   1
   5  -5  -1 4037.46 142.448   1
   5  -5   0 517.767 76.2693   1
   5  -5   1 713.949 82.4670   1
   5  -5   2 878.504 73.4416   1
   5  -5   3 2290.97 106.254   1
   5  -5   4 8.23896 90.8839   1
   5  -5   5 5625.42 264.276   1
   5  -5   6 153.415 184.532   1
   5  -5   7 1194.34 220.377   1
   5  -5   8 143.981 185.785   1
   5  -5   9 3082.25 275.876   1
   5  -5  10 456.269 193.284   1
   5  -5  11 2228.86 479.694   1
   5  -5  12 222.158 426.772   1
   5  -5  13 2430.28 543.128   1
   5  -5  14 223.266 446.251   1
   5  -4 -18 678.434 341.657   1
   5  -4 -17 741.692 328.507   1
   5  -4 -16 843.151 322.558   1
   5  -4 -15 568.802 291.020   1
   5  -4 -14 1684.24 314.790   1
   5  -4 -13 395.004 172.995   1
   5  -4 -12 3847.98 249.355   1
   5  -4 -11 288.416 163.907   1
   5  -4 -10 2554.59 215.752   1
   5  -4  -9 230.105 165.029   1
   5  -4  -8 5358.40 264.099   1
   5  -4  -7 2075.67 195.387   1
   5  -4  -6 3166.37 132.390   1
   5  -4  -5 639.494 107.535   1
   5  -4  -4 2706.24 157.381   1
   5  -4  -3 125.851 223.789   1
   5  -4  -2 3511.28 219.865   1
   5  -4  -1 1165.53 169.693   1
   5  -4   0 1732.33 194.846   1
   5  -4   1 384.836 172.912   1
   5  -4   2 3846.37 78.1548   1
   5  -4   3 1959.85 82.6052   1
   5  -4   4 2502.88 145.066   1
   5  -4   5 318.899 175.259   1
   5  -4   6 4744.85 303.937   1
   5  -4   7 99.3960 184.968   1
   5  -4   8 2110.64 247.022   1
   5  -4   9 1642.69 235.490   1
   5  -4  10 2118.30 253.307   1
   5  -4  11 218.746 387.419   1
   5  -4  12 4415.06 614.854   1
   5  -4  13 298.284 441.053   1
   5  -4  14 1115.74 482.804   1
   5  -3 -18 1052.65 361.230   1
   5  -3 -17 2021.21 363.932   1
   5  -3 -16 231.295 299.657   1
   5  -3 -15 2480.36 359.629   1
   5  -3 -14 1431.31 199.912   1
   5  -3 -13 1442.53 196.974   1
   5  -3 -12 1134.84 188.611   1
   5  -3 -11 2876.03 219.802   1
   5  -3 -10 2988.04 225.701   1
   5  -3  -9 1488.44 187.842   1
   5  -3  -8 1480.11 183.389   1
   5  -3  -7 1309.43 77.2490   1
   5  -3  -6 733.665 106.444   1
   5  -3  -5 2735.68 123.462   1
   5  -3  -4 4072.49 217.919   1
   5  -3  -3 1014.32 156.810   1
   5  -3  -2 1104.06 167.482   1
   5  -3  -1 6482.30 293.613   1
   5  -3   0 642.974 170.338   1
   5  -3   1 5074.39 117.639   1
   5  -3   2 1590.17 219.759   1
   5  -3   3 2549.16 122.425   1
   5  -3   4 467.399 95.3768   1
   5  -3   5 2874.00 261.376   1
   5  -3   6 195.854 182.490   1
   5  -3   7 4539.13 305.767   1
   5  -3   8 542.108 203.789   1
   5  -3   9 5523.14 335.792   1
   5  -3  10-31.8707 188.491   1
   5  -3  11 1808.84 437.387   1
   5  -3  12 609.502 450.269   1
   5  -3  13 2638.42 563.266   1
   5  -3  14 187.650 450.937   1
   5  -2 -18 1112.83 331.352   1
   5  -2 -17 993.869 335.745   1
   5  -2 -16 1273.35 323.685   1
   5  -2 -15 649.376 270.512   1
   5  -2 -14 1589.47 211.261   1
   5  -2 -13 817.823 176.172   1
   5  -2 -12 2885.78 223.877   1
   5  -2 -11 578.045 167.025   1
   5  -2 -10 4388.27 252.119   1
   5  -2  -9 657.722 161.366   1
   5  -2  -8 3832.33 142.950   1
   5  -2  -7 1697.20 121.202   1
   5  -2  -6 3794.48 176.938   1
   5  -2  -5 320.099 175.893   1
   5  -2  -4 8691.32 516.501   1
   5  -2  -3 1359.36 292.960   1
   5  -2  -2 836.649 65.3713   1
   5  -2  -1 1635.05 109.654   1
   5  -2   0 1327.94 115.862   1
   5  -2   1 52.6540 91.1987   1
   5  -2   2 3441.72 385.010   1
   5  -2   3 2685.06 139.750   1
   5  -2   4 267.239 239.206   1
   5  -2   5 730.752 202.989   1
   5  -2   6 2657.25 258.540   1
   5  -2   7 270.655 193.634   1
   5  -2   8 2125.37 249.756   1
   5  -2   9 373.651 194.685   1
   5  -2  10 1575.32 432.005   1
   5  -2  11 162.795 403.101   1
   5  -2  12 989.679 457.863   1
   5  -2  13 315.188 425.561   1
   5  -1 -19 825.851 345.613   1
   5  -1 -18 644.927 313.257   1
   5  -1 -17 837.667 312.639   1
   5  -1 -16 1319.76 303.424   1
   5  -1 -15 1679.43 293.494   1
   5  -1 -14 1488.99 204.462   1
   5  -1 -13 1565.23 200.698   1
   5  -1 -12 512.247 167.727   1
   5  -1 -11 2335.12 211.894   1
   5  -1 -10 1052.80 186.061   1
   5  -1  -9 2305.28 205.918   1
   5  -1  -8 3670.35 232.240   1
   5  -1  -7 2367.72 255.627   1
   5  -1  -6 481.734 188.544   1
   5  -1  -5 1148.98 126.007   1
   5  -1  -4 631.685 107.152   1
   5  -1  -3 2906.39 157.823   1
   5  -1  -2 819.494 118.353   1
   5  -1  -1 3679.08 183.049   1
   5  -1   0 1437.94 138.562   1
   5  -1   1 1269.60 141.807   1
   5  -1   2 116.974 68.5897   1
   5  -1   3 11290.4 273.600   1
   5  -1   4 1381.91 307.216   1
   5  -1   5 3167.16 373.295   1
   5  -1   6 18.5795 246.494   1
   5  -1   7 3780.29 383.448   1
   5  -1   8 111.252 186.563   1
   5  -1   9 5840.74 348.850   1
   5  -1  10 1180.09 458.149   1
   5  -1  11 2731.52 550.030   1
   5  -1  12 136.125 446.777   1
   5  -1  13 2643.94 554.577   1
   5   0 -19 537.398 318.954   1
   5   0 -18 909.934 327.981   1
   5   0 -17 705.534 299.536   1
   5   0 -16 1122.60 292.923   1
   5   0 -15 473.917 173.984   1
   5   0 -14 1393.15 202.298   1
   5   0 -13 1749.01 208.268   1
   5   0 -12 2589.60 217.691   1
   5   0 -11 749.739 169.662   1
   5   0 -10 3358.04 231.059   1
   5   0  -9 604.844 168.627   1
   5   0  -8 3076.59 219.165   1
   5   0  -7 1908.86 157.870   1
   5   0  -6 714.683 127.877   1
   5   0  -5 268.758 117.525   1
   5   0  -4 3662.83 204.773   1
   5   0  -3 2583.47 182.961   1
   5   0  -2 1879.60 172.761   1
   5   0  -1 2679.44 186.162   1
   5   0   0 3486.66 209.029   1
   5   0   1 757.381 90.1491   1
   5   0   2 907.745 104.439   1
   5   0   3 2608.99 339.437   1
   5   0   4 2781.94 351.448   1
   5   0   5 1412.17 298.797   1
   5   0   6 3084.10 382.106   1
   5   0   7 427.629 255.470   1
   5   0   8 1182.39 293.907   1
   5   0   9 581.624 204.945   1
   5   0  10 2832.29 525.146   1
   5   0  11 77.3817 406.732   1
   5   0  12 1360.51 503.131   1
   5   1 -19 855.210 329.419   1
   5   1 -18 995.582 310.163   1
   5   1 -17 1281.09 318.289   1
   5   1 -16 782.612 283.003   1
   5   1 -15 1066.59 204.794   1
   5   1 -14 1382.78 206.207   1
   5   1 -13 785.792 178.293   1
   5   1 -12 1175.70 182.922   1
   5   1 -11 1907.95 203.054   1
   5   1 -10 1179.59 187.422   1
   5   1  -9 735.308 168.767   1
   5   1  -8 402.849 184.707   1
   5   1  -7 2926.05 191.200   1
   5   1  -6 1346.00 153.754   1
   5   1  -5 1660.46 189.585   1
   5   1  -4 148.331 137.602   1
   5   1  -3 2674.91 211.346   1
   5   1  -2 854.783 162.862   1
   5   1  -1 3219.55 219.891   1
   5   1   0 732.441 155.069   1
   5   1   1 3102.00 230.156   1
   5   1   2 363.406 252.103   1
   5   1   3 3528.84 246.973   1
   5   1   4 1358.31 206.475   1
   5   1   5 2100.19 337.067   1
   5   1   6 426.703 257.857   1
   5   1   7 4045.79 409.354   1
   5   1   8 110.001 256.351   1
   5   1  11 2818.72 549.418   1
   5   1  12 95.2333 447.621   1
   5   2 -19 346.274 307.543   1
   5   2 -18 458.334 297.926   1
   5   2 -17 973.065 291.108   1
   5   2 -16 1179.01 291.359   1
   5   2 -15 1116.48 201.623   1
   5   2 -14 1820.55 215.093   1
   5   2 -13 1182.52 199.617   1
   5   2 -12 1013.11 184.610   1
   5   2 -11 942.206 146.078   1
   5   2 -10 3733.47 198.408   1
   5   2  -9 947.064 163.322   1
   5   2  -8 840.895 210.297   1
   5   2  -7 3436.01 278.682   1
   5   2  -6 2755.45 381.568   1
   5   2  -5 1411.26 209.028   1
   5   2  -4 2594.13 236.330   1
   5   2  -3 861.193 182.019   1
   5   2  -2 1110.11 185.763   1
   5   2  -1 3045.06 382.559   1
   5   2   0 2043.84 325.591   1
   5   2   1 1202.76 194.021   1
   5   2   2 1493.61 212.730   1
   5   2   3 220.343 170.430   1
   5   2   4 2850.71 257.061   1
   5   2   5 1857.25 244.027   1
   5   2   6 1611.81 322.946   1
   5   2   7 860.666 287.871   1
   5   2   8 1910.82 338.261   1
   5   3 -19 407.806 309.962   1
   5   3 -18 533.427 285.876   1
   5   3 -17 378.152 274.303   1
   5   3 -16 1511.88 215.624   1
   5   3 -15 932.014 196.958   1
   5   3 -14 505.551 183.082   1
   5   3 -13 1046.36 159.086   1
   5   3 -12 790.983 150.098   1
   5   3 -11 485.860 139.053   1
   5   3 -10 580.901 157.593   1
   5   3  -9 2892.46 219.071   1
   5   3  -8 925.112 168.539   1
   5   3  -7 2722.78 211.715   1
   5   3  -6 981.786 321.450   1
   5   3  -5 98.1228 258.313   1
   5   3  -4 70.8677 281.737   1
   5   3  -3 4713.72 462.600   1
   5   3  -2 244.099 175.671   1
   5   3  -1 1298.30 204.729   1
   5   3   0 1296.38 216.574   1
   5   3   1 2758.07 253.205   1
   5   3   2 136.064 174.913   1
   5   3   3 4462.17 304.343   1
   5   3   4 367.065 197.330   1
   5   3   5 2039.13 245.659   1
   5   3   6 860.054 222.184   1
   5   3   7 2253.98 384.929   1
   5   4 -18 751.460 287.315   1
   5   4 -17 722.462 275.309   1
   5   4 -16 929.597 214.473   1
   5   4 -15 1149.12 208.747   1
   5   4 -14 1876.53 224.738   1
  -5   9  -9 2706.02 502.498  -2
   5   4 -14 2706.02 502.498   1
   5   4 -13 1309.85 169.067   1
   5   4 -12 731.623 155.625   1
   5   4 -11 1739.03 203.997   1
   5   4 -10 1249.32 190.613   1
   5   4  -9 1632.61 198.005   1
   5   4  -8 1266.11 186.227   1
   5   4  -7 396.092 206.009   1
   5   4  -6 188.873 196.043   1
   5   4  -5 1830.74 247.827   1
   5   4  -4 613.829 204.955   1
   5   4  -3 3023.67 284.096   1
   5   4  -2 1890.39 245.235   1
   5   4  -1 770.442 212.243   1
   5   4   0 1814.52 245.704   1
   5   4   1 2020.58 250.646   1
   5   4   2 778.434 211.068   1
   5   4   3 751.132 214.581   1
   5   4   4 2845.62 284.345   1
   5   4   5 931.328 232.339   1
   5   4   6 1936.20 267.324   1
   5   4   7 1660.00 258.544   1
   5   4   8 2155.08 443.261   1
   5   4   9 57.4527 371.618   1
   5   5 -18 457.812 272.699   1
   5   5 -17 324.373 265.399   1
   5   5 -16 759.195 207.661   1
   5   5 -15 256.572 166.559   1
   5   5 -14 630.641 192.420   1
  -5  10  -9 1089.72 468.711  -2
   5   5 -14 1089.72 468.711   1
   5   5 -13 1772.97 191.219   1
   5   5 -12 643.175 187.838   1
   5   5 -11 452.513 180.776   1
   5   5 -10 897.784 181.441   1
   5   5  -9 1281.15 196.209   1
   5   5  -8 153.095 175.156   1
   5   5  -7 3295.51 312.325   1
   5   5  -6 2492.34 295.731   1
   5   5  -5 3151.34 309.853   1
   5   5  -4 996.680 237.970   1
   5   5  -3 1971.55 265.723   1
   5   5  -2 179.791 203.702   1
   5   5  -1 1777.59 260.377   1
   5   5   0 1074.83 233.482   1
   5   5   1 2881.98 295.528   1
   5   5   2 508.062 224.714   1
   5   5   3 1572.12 263.452   1
   5   5   4 223.316 213.309   1
   5   5   5 1774.84 271.024   1
   5   5   6 381.353 230.991   1
   5   5   7 1271.98 278.699   1
   5   5   8 266.912 382.521   1
   5   6 -17 485.712 404.243   1
   5   6 -16 419.085 214.613   1
   5   6 -15 852.877 274.323   1
  -5  11 -10 1297.59 546.314  -2
   5   6 -15 1297.59 546.314   1
   5   6 -14 660.535 212.898   1
   5   6 -13 734.659 205.059   1
   5   6 -12 829.624 198.875   1
   5   6 -11 645.306 187.332   1
   5   6 -10 736.676 189.364   1
   5   6  -9 1946.34 264.137   1
   5   6  -8 623.150 343.466   1
   5   6  -7 601.578 324.621   1
   5   6  -6 2144.22 429.373   1
   5   6  -5 568.095 344.545   1
   5   6  -4 362.768 305.552   1
   5   6  -3 713.242 343.010   1
   5   6  -2 976.715 311.579   1
   5   6  -1 581.693 302.105   1
   5   6   0 698.162 302.911   1
   5   6   1 1279.83 272.300   1
   5   6   2 1357.60 276.306   1
   5   6   3 518.274 242.429   1
   5   6   4 2312.96 310.832   1
   5   6   5 444.323 253.039   1
   5   6   6 597.257 261.614   1
   5   6   7 512.308 395.753   1
   5   7 -17 845.806 386.651   1
  -5  12 -12 1063.98 588.121  -2
   5   7 -17 1063.98 588.121   1
   5   7 -16 845.934 235.949   1
   5   7 -15 258.069 269.074   1
  -5  12 -10 1632.98 587.741  -2
   5   7 -15 1632.98 587.741   1
   5   7 -14 489.172 209.506   1
   5   7 -13 622.367 254.053   1
  -5  12  -8 1797.15 533.029  -2
   5   7 -13 1797.15 533.029   1
   5   7 -12 963.752 246.377   1
   5   7 -11 570.678 240.783   1
   5   7 -10 619.428 232.029   1
   5   7  -9 1137.66 382.188   1
   5   7  -8 769.271 372.942   1
   5   7  -7 270.994 374.101   1
   5   7  -6 70.9065 359.347   1
   5   7  -5 544.407 354.718   1
   5   7  -4 367.467 356.648   1
   5   7  -3 1010.34 379.358   1
   5   7  -2 1019.55 368.393   1
   5   7  -1 589.986 324.608   1
   5   7   0 59.1314 320.577   1
   5   7   1 979.110 398.493   1
   5   7   2 1347.53 294.659   1
   5   7   3 1379.39 293.906   1
   5   7   4 299.737 262.914   1
   5   7   5 1665.45 309.213   1
   5   7   6 467.655 271.167   1
   5   8 -16 399.122 282.672   1
   5   8 -15 694.757 228.486   1
   5   8 -14 177.333 242.779   1
  -5  13  -9 1780.94 607.058  -2
   5   8 -14 1780.94 607.058   1
   5   8 -13 529.881 251.859   1
   5   8 -12 1295.54 277.023   1
   5   8 -11 796.259 255.612   1
   5   8 -10 499.789 409.087   1
   5   8  -9 1634.64 472.147   1
   5   8  -8 520.862 426.295   1
   5   8  -7 399.749 405.232   1
   5   8  -6 748.316 412.881   1
   5   8  -5 1194.24 431.699   1
   5   8  -4 474.313 384.188   1
   5   8  -3 1543.39 430.943   1
   5   8  -2 1293.15 439.805   1
   5   8  -1 1448.44 434.255   1
   5   8   0 823.084 383.095   1
   5   8   1 992.641 391.678   1
   5   8   2 928.483 444.730   1
   5   8   3 1607.00 321.048   1
   5   8   4 1207.70 324.912   1
  -5  14  -9 2368.26 652.568  -2
   5   9 -14 2368.26 652.568   1
  -5  14  -8 1068.32 613.539  -2
   5   9 -13 1068.32 613.539   1
  -5  14  -7 1861.05 610.797  -2
   5   9 -12 1861.05 610.797   1
   5   9 -11 5.68190 407.635   1
   5   9 -10 763.393 461.269   1
   5   9  -9 387.851 423.963   1
   5   9  -8 447.973 464.791   1
   5   9  -7 135.293 428.015   1
   5   9  -6 320.796 434.506   1
   5   9  -5 2695.96 531.016   1
   5   9  -4 318.798 394.169   1
   5   9  -3-121.495 400.167   1
   5   9  -2 474.648 420.912   1
   5   9  -1 474.048 417.076   1
   5   9   0 673.956 423.382   1
   5   9   1 997.415 450.562   1
   5   9   2 241.090 426.502   1
   5  10 -12 635.187 452.290   1
   5  10 -11 888.846 493.678   1
   5  10 -10 874.905 489.835   1
   5  10  -9 379.144 475.957   1
   5  10  -8 586.214 433.529   1
   5  10  -7 1409.36 490.703   1
   5  10  -6 377.540 421.232   1
   5  10  -5 571.674 437.854   1
   5  10  -4 478.718 452.614   1
   5  10  -3 606.375 458.472   1
   5  10  -2 148.568 435.449   1
   5  10  -1 1856.86 521.530   1
   6 -14  -4 1158.33 318.415   1
   6 -14  -3 1379.97 315.777   1
   6 -14  -2 733.134 250.219   1
   6 -14  -1 549.268 241.493   1
   6 -14   0 1313.03 263.367   1
   6 -14   1 800.716 319.527   1
   6 -14   2 1589.65 281.260   1
   6 -14   3 593.606 249.810   1
   6 -14   4 1670.06 283.638   1
   6 -14   5 623.219 321.492   1
   6 -14   6 1788.05 360.386   1
   6 -13  -7 815.282 265.340   1
   6 -13  -6 1851.72 278.741   1
   6 -13  -5 737.991 246.388   1
   6 -13  -4 762.120 245.334   1
   6 -13  -3 417.166 224.669   1
   6 -13  -2 341.014 219.500   1
   6 -13  -1 663.262 211.692   1
   6 -13   0 1967.22 256.595   1
   6 -13   1 941.935 230.967   1
   6 -13   2 1117.11 238.970   1
   6 -13   3 1232.48 258.528   1
   6 -13   4 94.7459 237.375   1
   6 -13   5 362.251 234.531   1
   6 -13   6 313.584 247.783   1
   6 -13   7 954.244 275.293   1
   6 -13   8 589.780 264.118   1
   6 -12  -9 1496.15 239.172   1
   6 -12  -8 808.162 242.753   1
   6 -12  -7 766.590 227.640   1
   6 -12  -6 1901.48 258.414   1
   6 -12  -5 1702.20 243.123   1
   6 -12  -4 1387.90 237.213   1
   6 -12  -3 1217.13 231.131   1
   6 -12  -2 1074.57 215.331   1
   6 -12  -1 1111.03 215.416   1
   6 -12   0 1694.41 202.451   1
   6 -12   1 1229.51 197.065   1
   6 -12   2 1989.41 274.431   1
   6 -12   3 308.714 215.715   1
   6 -12   4 760.965 250.752   1
   6 -12   5 585.247 230.638   1
   6 -12   6 1195.44 254.597   1
   6 -12   7 253.541 228.404   1
   6 -12   8 719.611 248.207   1
   6 -12   9 772.415 254.252   1
   6 -11 -11 666.138 473.599   1
   6 -11 -10 1179.90 192.409   1
   6 -11  -9 552.630 203.352   1
   6 -11  -8 1656.84 214.908   1
   6 -11  -7 853.340 217.640   1
   6 -11  -6 871.062 220.146   1
   6 -11  -5 1029.79 205.738   1
   6 -11  -4 1930.38 224.851   1
   6 -11  -3 1621.63 224.789   1
   6 -11  -2 2462.35 239.749   1
   6 -11  -1 556.974 151.392   1
   6 -11   0 60.4677 150.918   1
   6 -11   1 683.577 162.866   1
   6 -11   2 2893.61 272.328   1
   6 -11   3 1125.50 233.705   1
   6 -11   4 2752.20 265.812   1
   6 -11   5 1387.46 238.725   1
   6 -11   6 943.616 226.961   1
   6 -11   7 1338.49 248.416   1
   6 -11   8 1448.75 246.435   1
   6 -11   9 895.496 244.334   1
   6 -11  10 813.734 254.684   1
   6 -10 -12 613.237 187.025   1
   6 -10 -11 1139.76 187.122   1
   6 -10 -10 823.181 176.088   1
   6 -10  -9 2256.02 202.449   1
   6 -10  -8 929.041 198.932   1
   6 -10  -7 1845.22 233.103   1
   6 -10  -6 1078.75 199.161   1
   6 -10  -5 1687.68 209.702   1
   6 -10  -4 1962.11 212.800   1
   6 -10  -3 2183.50 212.909   1
   6 -10  -2 858.602 148.009   1
   6 -10  -1 1096.93 154.900   1
   6 -10   0 1409.80 167.208   1
   6 -10   1 1132.79 165.790   1
   6 -10   2 1291.30 221.493   1
   6 -10   3 871.650 197.485   1
   6 -10   4 2533.63 256.590   1
   6 -10   5 422.790 196.970   1
   6 -10   6 1035.43 216.409   1
   6 -10   7 176.869 201.532   1
   6 -10   8 1610.03 249.955   1
   6 -10   9 701.043 228.712   1
   6 -10  10 1146.51 242.503   1
   6 -10  11 186.833 218.373   1
   6  -9 -13 784.398 259.015   1
   6  -9 -12 1914.33 200.231   1
   6  -9 -11 582.053 168.510   1
   6  -9 -10 990.905 177.864   1
   6  -9  -9 795.829 157.078   1
   6  -9  -8 1750.70 171.795   1
   6  -9  -7 1152.91 204.339   1
   6  -9  -6 1567.53 205.885   1
   6  -9  -5 1346.80 192.528   1
   6  -9  -4 1679.35 192.140   1
   6  -9  -3 277.733 120.970   1
   6  -9  -2 743.651 160.337   1
   6  -9  -1 1895.64 158.579   1
   6  -9   0 1974.86 161.495   1
   6  -9   1 1330.37 146.753   1
   6  -9   2 2986.03 249.507   1
   6  -9   3 994.800 199.536   1
   6  -9   4 767.324 204.609   1
   6  -9   5 970.008 206.437   1
   6  -9   6 3386.07 280.302   1
   6  -9   7 1721.84 231.605   1
   6  -9   8 1454.10 234.741   1
   6  -9   9 757.098 226.769   1
   6  -9  10 1275.70 238.849   1
   6  -9  11 1279.02 292.884   1
   6  -9  12 845.336 489.680   1
   6  -8 -14 486.144 311.837   1
   6  -8 -13 1927.63 348.455   1
   6  -8 -12 796.853 168.929   1
   6  -8 -11 2352.61 201.588   1
   6  -8 -10 770.794 155.597   1
   6  -8  -9 2256.72 185.288   1
   6  -8  -8 757.683 145.598   1
   6  -8  -7 3458.04 238.554   1
   6  -8  -6 1854.52 194.711   1
   6  -8  -5 3496.15 225.794   1
   6  -8  -4 919.763 132.164   1
   6  -8  -3 1495.37 134.882   1
   6  -8  -2 4050.67 186.014   1
   6  -8  -1 4280.80 184.700   1
   6  -8   0 1118.39 127.172   1
   6  -8   1 642.459 176.573   1
   6  -8   2 1459.81 197.773   1
   6  -8   3 1758.77 213.929   1
   6  -8   4 1441.97 210.167   1
   6  -8   5 1609.37 216.838   1
   6  -8   6 1259.58 208.826   1
   6  -8   7 266.769 186.514   1
   6  -8   8 1345.20 220.191   1
   6  -8   9 1714.42 237.115   1
   6  -8  10 763.104 264.833   1
   6  -8  11 23.2428 442.327   1
   6  -8  12 1805.48 536.357   1
   6  -7 -15 404.435 318.515   1
   6  -7 -14 1528.99 335.890   1
   6  -7 -13 556.693 219.862   1
   6  -7 -12 1715.99 241.684   1
   6  -7 -11 1473.22 194.549   1
   6  -7 -10 1408.73 164.984   1
   6  -7  -9 738.124 142.683   1
   6  -7  -8 2616.11 174.040   1
   6  -7  -7 862.358 168.483   1
   6  -7  -6 1552.55 175.021   1
   6  -7  -5 2402.19 189.256   1
   6  -7  -4 4216.08 177.651   1
   6  -7  -3 869.852 119.158   1
   6  -7  -2 3502.72 187.140   1
   6  -7  -1 96.7004 95.0146   1
   6  -7   0 1221.31 178.115   1
   6  -7   1 2185.48 206.947   1
   6  -7   2 3834.75 253.870   1
   6  -7   3 338.470 165.931   1
   6  -7   4 7248.04 319.396   1
   6  -7   5 2084.85 220.197   1
   6  -7   6 2532.69 238.044   1
   6  -7   7 1841.39 222.341   1
   6  -7   8 1609.61 261.362   1
   6  -7   9 759.467 246.711   1
   6  -7  10 2560.87 309.473   1
   6  -7  11 875.011 475.906   1
   6  -7  12 941.502 495.225   1
   6  -6 -16 136.040 332.949   1
   6  -6 -15 1787.68 381.688   1
   6  -6 -14 1205.77 330.135   1
   6  -6 -13 2068.63 257.092   1
   6  -6 -12 194.198 187.652   1
   6  -6 -11 2755.45 255.667   1
   6  -6 -10 320.795 189.514   1
   6  -6  -9 2284.41 232.463   1
   6  -6  -8 776.896 198.477   1
   6  -6  -7 2818.33 182.329   1
   6  -6  -6 282.670 131.612   1
   6  -6  -5 1202.96 117.936   1
   6  -6  -4 911.727 110.640   1
   6  -6  -3 1461.20 121.002   1
   6  -6  -2 548.332 93.4724   1
   6  -6  -1 2073.97 193.710   1
   6  -6   0 2666.29 210.095   1
   6  -6   1 860.353 176.323   1
   6  -6   2 1748.07 192.203   1
   6  -6   3 1837.08 209.840   1
   6  -6   4 1898.39 215.194   1
   6  -6   5 188.045 205.296   1
   6  -6   6 1308.04 254.569   1
   6  -6   7 1454.23 249.485   1
   6  -6   8 3302.13 320.023   1
   6  -6   9 1103.69 249.098   1
   6  -6  10 945.434 253.329   1
   6  -6  11 1148.28 477.247   1
   6  -6  12 1029.70 502.942   1
   6  -5 -16 779.669 330.093   1
   6  -5 -15 914.386 326.153   1
   6  -5 -14 2170.16 256.347   1
   6  -5 -13 1304.44 224.391   1
   6  -5 -12 3275.50 262.995   1
   6  -5 -11 1278.97 205.707   1
   6  -5 -10 2444.52 237.827   1
   6  -5  -9 1709.54 218.000   1
   6  -5  -8 2746.45 235.903   1
   6  -5  -7 1320.12 231.227   1
   6  -5  -6 5173.73 222.308   1
   6  -5  -5 2869.25 194.880   1
   6  -5  -4 5725.71 269.183   1
   6  -5  -3 686.568 300.843   1
   6  -5  -2 2595.77 234.127   1
   6  -5  -1 1376.31 214.994   1
   6  -5   0 9092.01 386.949   1
   6  -5   1 1782.89 235.265   1
   6  -5   2 2783.84 270.936   1
   6  -5   3 899.166 212.793   1
   6  -5   4 2357.51 267.002   1
   6  -5   5 748.846 231.727   1
   6  -5   6 6904.18 389.378   1
   6  -5   7 669.807 225.978   1
   6  -5   8 1292.07 261.075   1
   6  -5   9 1091.06 249.488   1
   6  -5  10 2021.46 279.666   1
   6  -5  11 721.934 431.190   1
   6  -5  12 482.764 423.953   1
   6  -4 -17 1361.11 383.619   1
   6  -4 -16-32.0451 329.095   1
   6  -4 -15 1960.56 351.673   1
   6  -4 -14 989.796 223.549   1
   6  -4 -13 2165.07 242.800   1
   6  -4 -12 674.123 195.560   1
   6  -4 -11 2148.42 229.847   1
   6  -4 -10 231.516 173.450   1
   6  -4  -9 2018.42 221.880   1
   6  -4  -8 424.443 181.235   1
   6  -4  -7 3144.06 287.935   1
   6  -4  -6 1092.35 148.809   1
   6  -4  -5 755.703 153.916   1
   6  -4  -4 790.884 306.781   1
   6  -4  -3 1215.58 195.903   1
   6  -4  -2 2517.74 240.288   1
   6  -4  -1 915.921 199.207   1
   6  -4   0 305.207 184.427   1
   6  -4   1 1139.27 216.799   1
   6  -4   2 2650.22 266.671   1
   6  -4   3 2673.14 274.504   1
   6  -4   4 982.056 235.825   1
   6  -4   5 1479.21 243.704   1
   6  -4   6 2092.69 274.741   1
   6  -4   7 1900.74 271.122   1
   6  -4   8 1745.22 275.588   1
   6  -4   9 1629.40 268.462   1
   6  -4  10 833.576 438.585   1
   6  -4  11 2468.05 522.622   1
   6  -4  12 1133.18 554.720   1
   6  -3 -17 424.034 321.289   1
   6  -3 -16 1639.58 337.719   1
   6  -3 -15 402.350 305.058   1
   6  -3 -14 2008.43 244.709   1
   6  -3 -13 2136.84 243.923   1
   6  -3 -12 2441.37 241.476   1
   6  -3 -11 1542.44 211.996   1
   6  -3 -10 4548.38 280.998   1
   6  -3  -9 569.829 181.214   1
   6  -3  -8 3707.32 312.961   1
   6  -3  -7 862.201 132.644   1
   6  -3  -6 4108.06 231.247   1
   6  -3  -5 541.537 152.729   1
   6  -3  -4 6104.96 502.822   1
   6  -3  -3 1274.71 331.927   1
   6  -3  -2 6187.95 507.113   1
   6  -3  -1 616.295 198.599   1
   6  -3   0 5333.73 328.452   1
   6  -3   1 1014.63 105.801   1
   6  -3   2 2298.21 153.027   1
   6  -3   3 1184.18 239.822   1
   6  -3   4 7381.85 391.631   1
   6  -3   5 799.534 237.857   1
   6  -3   6 1474.52 258.506   1
   6  -3   7 861.529 245.021   1
   6  -3   8 1346.94 269.664   1
   6  -3   9 2003.96 290.609   1
   6  -3  10 1052.95 462.195   1
   6  -3  11 411.419 440.015   1
   6  -3  12 676.823 480.273   1
   6  -2 -18-16.0527 467.973   1
   6  -2 -17 1271.17 348.114   1
   6  -2 -16 163.537 295.479   1
   6  -2 -15 1769.26 234.062   1
   6  -2 -14 432.290 195.948   1
   6  -2 -13 2607.87 244.401   1
   6  -2 -12 429.964 189.204   1
   6  -2 -11 2739.35 246.093   1
   6  -2 -10 245.717 176.215   1
   6  -2  -9 1223.69 204.357   1
   6  -2  -8 1090.36 246.079   1
   6  -2  -7 2595.36 280.157   1
   6  -2  -6 674.824 324.088   1
   6  -2  -5 713.386 302.800   1
   6  -2  -4 1861.73 352.152   1
   6  -2  -3 1052.35 316.265   1
   6  -2  -2 599.303 78.4651   1
   6  -2  -1 972.312 116.532   1
   6  -2   0 2476.88 161.031   1
   6  -2   1 2508.27 178.400   1
   6  -2   2 2061.31 183.674   1
   6  -2   3 645.749 152.470   1
   6  -2   4 824.660 309.843   1
   6  -2   5 1567.19 257.257   1
   6  -2   6 1678.20 267.483   1
   6  -2   7 3398.31 315.250   1
   6  -2   8 1224.28 259.123   1
   6  -2   9 421.767 235.581   1
   6  -2  10 1289.06 492.837   1
   6  -2  11 2343.55 565.498   1
   6  -1 -18 605.065 338.402   1
   6  -1 -17 726.922 340.600   1
   6  -1 -16 1461.89 338.863   1
   6  -1 -15 694.790 212.671   1
   6  -1 -14 1984.22 240.163   1
   6  -1 -13 1264.57 211.319   1
   6  -1 -12 4125.43 283.449   1
   6  -1 -11 1626.02 215.436   1
   6  -1 -10 3352.04 252.273   1
   6  -1  -9 153.616 214.214   1
   6  -1  -8 2594.97 279.272   1
   6  -1  -7 630.976 223.560   1
   6  -1  -6 12453.8 676.850   1
   6  -1  -5 678.252 122.413   1
   6  -1  -4 3237.86 179.297   1
   6  -1  -3 104.769 112.335   1
   6  -1  -2 4051.49 210.482   1
   6  -1  -1 1549.40 162.858   1
   6  -1   0 9480.07 316.330   1
   6  -1   1 555.251 148.371   1
   6  -1   2 3094.96 223.067   1
   6  -1   3 1687.25 359.213   1
   6  -1   4 2360.81 390.765   1
   6  -1   5 635.418 322.350   1
   6  -1   6 4667.70 460.597   1
   6  -1   7 837.790 248.684   1
   6  -1   8 3097.62 313.021   1
   6  -1   9 947.096 454.198   1
   6  -1  10 951.653 467.552   1
   6  -1  11 269.370 481.033   1
   6   0 -18 196.648 328.119   1
   6   0 -17 2341.36 383.931   1
   6   0 -16 55.6517 285.689   1
   6   0 -15 1905.55 248.825   1
   6   0 -14 242.920 198.899   1
   6   0 -13 1554.67 224.740   1
   6   0 -12 1677.59 221.251   1
   6   0 -11 1752.99 226.175   1
   6   0 -10 215.925 217.803   1
   6   0  -9 1644.74 253.168   1
   6   0  -8 876.264 147.267   1
   6   0  -7 1839.07 189.570   1
   6   0  -6 1192.42 164.154   1
   6   0  -5 2411.26 194.116   1
   6   0  -4 408.931 143.025   1
   6   0  -3 1146.06 166.569   1
   6   0  -2 1127.78 176.361   1
   6   0  -1 604.138 156.517   1
   6   0   0 899.025 172.729   1
   6   0   1 3806.41 248.790   1
   6   0   2 1397.50 354.738   1
   6   0   3 1963.55 220.334   1
   6   0   4 534.471 190.881   1
   6   0   5 1488.44 233.307   1
   6   0   6 1439.99 362.145   1
   6   0   7 2445.07 373.713   1
   6   0   8 1466.36 352.216   1
   6   0   9 1219.36 457.884   1
   6   0  10 932.234 471.486   1
   6   1 -18 1007.28 342.045   1
   6   1 -17 122.841 296.538   1
   6   1 -16 1900.10 261.512   1
   6   1 -15 181.530 196.655   1
   6   1 -14 1941.81 239.127   1
   6   1 -13 692.482 196.337   1
   6   1 -12 2255.30 236.299   1
   6   1 -11 938.981 241.910   1
   6   1 -10 7270.61 294.146   1
   6   1  -9 515.340 218.333   1
   6   1  -8 2945.58 292.870   1
   6   1  -7 785.832 172.254   1
   6   1  -6 2222.47 213.291   1
   6   1  -5 823.830 177.446   1
   6   1  -4 4975.12 285.580   1
   6   1  -3 857.531 185.189   1
   6   1  -2 4078.38 267.101   1
   6   1  -1 1219.27 190.528   1
   6   1   0 2525.20 405.348   1
   6   1   1 428.283 298.899   1
   6   1   2 4048.12 283.131   1
   6   1   3 808.078 197.703   1
   6   1   4 3135.08 272.782   1
   6   1   5 1194.43 222.270   1
   6   1   6 950.193 232.488   1
   6   1   7 1066.73 339.224   1
   6   1  10 737.008 474.529   1
   6   2 -18 261.177 323.371   1
   6   2 -17 738.492 306.703   1
   6   2 -16 195.729 207.861   1
   6   2 -15 938.292 217.495   1
   6   2 -14 22.1889 197.232   1
   6   2 -13 1752.76 234.228   1
   6   2 -12 379.199 220.299   1
   6   2 -11 1720.31 204.644   1
   6   2 -10 1172.11 182.364   1
   6   2  -9 1254.54 182.057   1
   6   2  -8 581.928 160.358   1
   6   2  -7 1146.12 360.347   1
   6   2  -6 421.537 303.189   1
   6   2  -5 4727.65 494.089   1
   6   2  -4 1505.04 380.447   1
   6   2  -3 2499.55 424.161   1
   6   2  -2 378.935 318.476   1
   6   2  -1 1607.49 227.010   1
   6   2   0 1912.12 238.502   1
   6   2   1 3548.74 277.702   1
   6   2   2 663.723 208.844   1
   6   2   3 2256.96 263.674   1
   6   2   4 521.429 211.307   1
   6   2   5 2475.29 284.358   1
   6   2   6 309.929 225.757   1
   6   2   7 1712.03 270.280   1
   6   2   8 891.103 367.555   1
   6   3 -17 292.208 293.763   1
   6   3 -16 1845.38 254.754   1
   6   3 -15 70.1867 208.878   1
   6   3 -14 2270.19 254.717   1
   6   3 -13 134.942 176.392   1
   6   3 -12 2710.44 238.536   1
   6   3 -11 575.970 178.793   1
   6   3 -10 1850.35 211.493   1
   6   3  -9 520.291 173.413   1
   6   3  -8 3125.76 288.142   1
   6   3  -7 342.958 196.715   1
   6   3  -6 4626.49 327.307   1
   6   3  -5 505.456 202.493   1
   6   3  -4 1302.42 240.556   1
   6   3  -3 193.405 194.496   1
   6   3  -2 2921.55 279.344   1
   6   3  -1 202.782 199.619   1
   6   3   0 1734.91 249.132   1
   6   3   1 725.073 221.444   1
   6   3   2 3899.95 320.576   1
   6   3   3 921.592 234.317   1
   6   3   4 1223.13 255.417   1
   6   3   5 136.680 227.402   1
   6   3   6 1021.41 256.839   1
   6   3   7 123.685 257.756   1
   6   3   8 2263.53 465.114   1
   6   4 -17 1191.40 302.391   1
   6   4 -16 129.412 215.560   1
   6   4 -15 893.402 230.867   1
   6   4 -14 312.668 200.348   1
   6   4 -13 1438.69 227.760   1
   6   4 -12 656.300 195.695   1
   6   4 -11 929.155 200.787   1
   6   4 -10 403.265 183.244   1
   6   4  -9 2417.85 233.713   1
   6   4  -8 67.5009 212.119   1
   6   4  -7 1205.08 249.635   1
   6   4  -6 551.661 242.223   1
   6   4  -5 1660.57 273.905   1
   6   4  -4 211.464 221.510   1
   6   4  -3 3350.97 314.319   1
   6   4  -2 161.831 218.337   1
   6   4  -1 1634.47 259.265   1
   6   4   0 662.512 238.659   1
   6   4   1 1764.01 275.314   1
   6   4   2 311.784 221.885   1
   6   4   3 4115.31 344.789   1
   6   4   4 420.524 230.870   1
   6   4   5 1630.24 291.621   1
   6   4   6 402.853 257.468   1
   6   4   7 473.111 376.243   1
   6   5 -16 990.593 305.416   1
   6   5 -15 342.959 215.155   1
   6   5 -14 1520.92 241.922   1
   6   5 -13 414.987 205.075   1
   6   5 -12 1678.23 234.955   1
   6   5 -11 481.795 197.563   1
   6   5 -10 2077.68 242.100   1
   6   5  -9 1037.02 273.867   1
   6   5  -8 3547.05 349.933   1
   6   5  -7 167.769 228.353   1
   6   5  -6 1024.71 260.144   1
   6   5  -5 161.040 243.893   1
   6   5  -4 3863.45 354.284   1
   6   5  -3 222.749 223.929   1
   6   5  -2 3459.84 341.710   1
   6   5  -1-10.5859 237.654   1
   6   5   0 1231.42 276.599   1
   6   5   1 901.201 245.479   1
   6   5   2 1892.35 300.725   1
   6   5   3 461.521 238.323   1
   6   5   4 2059.64 318.884   1
   6   5   5 561.975 260.476   1
   6   6 -16 212.714 393.082   1
   6   6 -15 1120.80 248.300   1
   6   6 -14 78.4317 218.090   1
   6   6 -13 1309.79 239.399   1
   6   6 -12 14.0221 206.392   1
   6   6 -11 1417.10 233.472   1
   6   6 -10 514.959 258.927   1
   6   6  -9 857.826 285.770   1
   6   6  -8-28.7931 261.807   1
   6   6  -7 1227.66 295.052   1
   6   6  -6 326.534 274.254   1
   6   6  -5 2264.20 337.027   1
   6   6  -4-35.8942 253.261   1
   6   6  -3 653.379 260.450   1
   6   6  -2 32.7643 244.239   1
   6   6  -1 2020.89 318.514   1
   6   6   0 404.843 257.658   1
   6   6   1 1159.99 306.786   1
   6   6   2 253.730 271.856   1
   6   6   3 1774.14 326.427   1
   6   6   4 114.266 271.517   1
   6   7 -14 734.434 240.792   1
   6   7 -13 46.8696 215.449   1
   6   7 -12 1180.05 238.613   1
   6   7 -11 247.387 282.727   1
   6   7 -10 886.100 320.669   1
   6   7  -9 324.693 293.626   1
   6   7  -8 1975.46 356.514   1
   6   7  -7 144.038 284.374   1
   6   7  -6 2374.65 366.910   1
   6   7  -5 278.008 304.664   1
   6   7  -4 1104.23 316.089   1
   6   7  -3 513.387 279.874   1
   6   7  -2 1909.00 337.935   1
   6   7  -1 176.553 262.148   1
   6   7   0 2122.84 342.234   1
   6   7   1 361.048 297.569   1
   6   7   2 1407.90 348.076   1
   6   8 -13 1501.68 485.958   1
   6   8 -12 4.25539 298.591   1
   6   8 -11 1503.07 351.995   1
   6   8 -10 25.5264 307.389   1
   6   8  -9 841.334 327.041   1
   6   8  -8 157.798 319.760   1
   6   8  -7 483.957 319.688   1
   6   8  -6 233.187 424.775   1
   6   8  -5 648.180 318.228   1
   6   8  -4-242.558 296.689   1
   6   8  -3 1712.79 361.091   1
   6   8  -2 31.0209 289.512   1
   6   8  -1 1266.34 331.442   1
   6   8   0 127.673 323.369   1
   6   9 -10 785.498 491.199   1
   6   9  -9 102.447 455.459   1
   6   9  -8 1046.57 501.510   1
   6   9  -7-461.766 451.723   1
   6   9  -6 724.687 461.453   1
   6   9  -5 1.22951 487.793   1
   6   9  -4 2554.81 554.213   1
   7 -13  -4 1964.81 359.774   1
   7 -13  -3 431.958 329.378   1
   7 -13  -2 3304.48 414.111   1
   7 -13  -1 241.974 302.092   1
   7 -13   0 933.086 337.453   1
   7 -13   1 311.587 318.666   1
   7 -13   2 2147.24 286.620   1
   7 -13   3 355.443 246.701   1
   7 -13   4 1217.41 281.592   1
   7 -13   5 397.055 312.995   1
   7 -12  -7 2840.91 376.975   1
   7 -12  -6 150.910 298.790   1
   7 -12  -5 2385.47 371.606   1
   7 -12  -4 35.8078 287.980   1
   7 -12  -3 3301.18 398.530   1
   7 -12  -2 431.182 284.535   1
   7 -12  -1 3581.34 401.592   1
   7 -12   0 439.396 284.677   1
   7 -12   1 4480.32 330.863   1
   7 -12   2 239.238 243.476   1
   7 -12   3 2000.32 284.806   1
   7 -12   4 239.102 248.002   1
   7 -12   5 3749.09 340.804   1
   7 -12   6 15.6627 247.446   1
   7 -11  -9-13.9255 290.128   1
   7 -11  -8 2575.89 373.477   1
   7 -11  -7 329.440 291.252   1
   7 -11  -6 2808.45 363.169   1
   7 -11  -5 73.2446 282.691   1
   7 -11  -4 1529.99 310.156   1
   7 -11  -3 313.982 272.229   1
   7 -11  -2 3441.79 381.669   1
   7 -11  -1 280.212 277.816   1
   7 -11   0 3717.23 302.605   1
   7 -11   1 224.903 213.221   1
   7 -11   2 1441.28 248.010   1
   7 -11   3 80.2638 225.486   1
   7 -11   4 2670.68 291.038   1
   7 -11   5 343.071 239.090   1
   7 -11   6 1298.99 265.439   1
   7 -11   7 112.382 229.512   1
   7 -11   8 1759.78 291.879   1
   7 -10 -11 1886.68 250.527   1
   7 -10 -10 248.697 231.245   1
   7 -10  -9 1399.91 302.797   1
   7 -10  -8 254.659 260.448   1
   7 -10  -7 3344.66 362.008   1
   7 -10  -6 579.700 265.933   1
   7 -10  -5 4472.58 389.892   1
   7 -10  -4 34.1792 246.479   1
   7 -10  -3 2661.13 336.744   1
   7 -10  -2 110.210 253.237   1
   7 -10  -1 6063.66 329.176   1
   7 -10   0 795.825 212.824   1
   7 -10   1 4715.12 316.965   1
   7 -10   2 187.834 213.775   1
   7 -10   3 3294.69 292.622   1
   7 -10   4-28.1547 216.160   1
   7 -10   5 4425.27 327.594   1
   7 -10   6 477.775 236.921   1
   7 -10   7 1739.64 271.847   1
   7 -10   8 192.964 232.253   1
   7 -10   9 1578.71 359.126   1
   7  -9 -12 886.080 250.070   1
   7  -9 -11 411.014 243.698   1
   7  -9 -10 2239.36 273.835   1
   7  -9  -9 363.250 256.079   1
   7  -9  -8 2185.47 321.269   1
   7  -9  -7 419.489 248.272   1
   7  -9  -6 3112.58 339.426   1
   7  -9  -5-3.46472 246.738   1
   7  -9  -4 2958.73 336.863   1
   7  -9  -3 339.767 255.718   1
   7  -9  -2 4048.68 362.103   1
   7  -9  -1 30.3922 183.486   1
   7  -9   0 3458.50 272.496   1
   7  -9   1 217.793 190.305   1
   7  -9   2 4466.37 301.929   1
   7  -9   3 56.5554 199.649   1
   7  -9   4 1537.47 244.647   1
   7  -9   5 7.48591 212.864   1
   7  -9   6 3098.23 293.587   1
   7  -9   7 194.730 211.769   1
   7  -9   8 1897.96 272.052   1
   7  -9   9 264.341 285.297   1
   7  -8 -13 701.050 249.023   1
   7  -8 -12 309.735 225.828   1
   7  -8 -11 4170.64 322.895   1
   7  -8 -10 143.435 227.069   1
   7  -8  -9 3395.73 472.032   1
   7  -8  -8 355.823 243.283   1
   7  -8  -7 4251.06 362.896   1
   7  -8  -6 313.309 240.369   1
   7  -8  -5 8049.60 452.519   1
   7  -8  -4 141.245 232.462   1
   7  -8  -3 5542.36 396.214   1
   7  -8  -2 127.323 167.510   1
   7  -8  -1 5275.43 297.028   1
   7  -8   0 334.595 181.476   1
   7  -8   1 8298.63 357.223   1
   7  -8   2 401.279 194.595   1
   7  -8   3 2126.96 242.138   1
   7  -8   4 174.042 203.583   1
   7  -8   5 3373.45 282.490   1
   7  -8   6 413.548 251.774   1
   7  -8   7 2008.15 325.367   1
   7  -8   8 144.032 271.617   1
   7  -8   9 1997.14 341.528   1
   7  -7 -14 1470.80 371.470   1
   7  -7 -13 276.369 231.774   1
   7  -7 -12 713.651 237.907   1
   7  -7 -11 601.732 223.269   1
   7  -7 -10 1610.00 254.813   1
   7  -7  -9 432.750 320.744   1
   7  -7  -8 2827.00 445.980   1
   7  -7  -7 618.514 356.504   1
   7  -7  -6 2380.75 416.381   1
   7  -7  -5 753.210 236.743   1
   7  -7  -4 2088.79 292.170   1
   7  -7  -3 243.705 162.837   1
   7  -7  -2 1970.08 207.989   1
   7  -7  -1 268.888 178.812   1
   7  -7   0 5106.25 292.871   1
   7  -7   1 594.427 198.631   1
   7  -7   2 3516.23 322.226   1
   7  -7   3 229.199 234.118   1
   7  -7   4 2776.03 308.517   1
   7  -7   5 205.215 242.949   1
   7  -7   6 3674.74 355.636   1
   7  -7   7 23.9009 252.269   1
   7  -7   8 2584.80 339.231   1
   7  -7   9 349.254 262.152   1
   7  -7  10 1863.84 541.890   1
   7  -6 -15 1032.64 558.736   1
   7  -6 -14 206.456 230.930   1
   7  -6 -13 1639.12 268.168   1
   7  -6 -12 293.586 221.756   1
   7  -6 -11 1971.06 265.510   1
   7  -6 -10 748.043 221.887   1
   7  -6  -9 4782.11 365.468   1
   7  -6  -8 86.9920 322.686   1
   7  -6  -7 4838.95 505.329   1
   7  -6  -6 1150.91 365.081   1
   7  -6  -5 6281.24 570.687   1
   7  -6  -4 86.9701 166.082   1
   7  -6  -3 8519.15 369.016   1
   7  -6  -2 602.901 204.673   1
   7  -6  -1 9193.17 410.077   1
   7  -6   0 69.9905 206.178   1
   7  -6   1 3605.88 312.376   1
   7  -6   2 555.310 229.685   1
   7  -6   3 5592.97 374.692   1
   7  -6   4 117.053 245.005   1
   7  -6   5 1883.33 295.910   1
   7  -6   6-32.3049 245.323   1
   7  -6   7 2064.93 305.065   1
   7  -6   8 174.085 244.190   1
   7  -6   9 1874.10 322.129   1
   7  -6  10 562.265 475.180   1
   7  -5 -15 540.300 332.107   1
   7  -5 -14 1570.48 263.729   1
   7  -5 -13 652.396 239.826   1
   7  -5 -12 1099.22 243.410   1
   7  -5 -11 832.942 224.708   1
   7  -5 -10 2424.36 305.801   1
   7  -5  -9 485.859 243.511   1
   7  -5  -8 2172.58 404.499   1
   7  -5  -7 197.247 319.447   1
   7  -5  -6 4168.85 487.226   1
   7  -5  -5 942.395 189.176   1
   7  -5  -4 5155.69 299.951   1
   7  -5  -3 748.872 203.723   1
   7  -5  -2 2481.11 261.821   1
   7  -5  -1 231.215 204.358   1
   7  -5   0 5004.30 340.834   1
   7  -5   1 336.686 227.253   1
   7  -5   2 7420.18 418.517   1
   7  -5   3 217.643 231.599   1
   7  -5   4 1780.44 294.922   1
   7  -5   5 412.788 236.646   1
   7  -5   6 4142.90 371.131   1
   7  -5   7 15.6390 253.189   1
   7  -5   8 2561.80 327.830   1
   7  -5   9 215.759 251.867   1
   7  -5  10 1654.63 534.357   1
   7  -4 -16 36.5339 333.198   1
   7  -4 -15 1200.16 346.705   1
   7  -4 -14 436.604 231.562   1
   7  -4 -13 1901.33 263.590   1
   7  -4 -12 650.763 231.289   1
   7  -4 -11 3206.39 277.986   1
   7  -4 -10 508.279 248.947   1
   7  -4  -9 3927.98 350.719   1
   7  -4  -8 779.741 325.353   1
   7  -4  -7 8813.23 621.997   1
   7  -4  -6 629.626 342.225   1
   7  -4  -5 4521.12 497.571   1
   7  -4  -4 282.557 190.027   1
   7  -4  -3 5078.61 317.848   1
   7  -4  -2 598.358 217.662   1
   7  -4  -1 5720.05 357.719   1
   7  -4   0 70.9188 209.748   1
   7  -4   1 5557.91 373.538   1
   7  -4   2 391.946 225.613   1
   7  -4   3 3448.60 331.872   1
   7  -4   4 671.696 254.961   1
   7  -4   5 955.918 269.141   1
   7  -4   6 143.043 248.679   1
   7  -4   7 2438.15 328.705   1
   7  -4   8 167.395 262.838   1
   7  -4   9 1720.95 515.963   1
   7  -3 -16 828.614 355.404   1
   7  -3 -15 617.018 223.824   1
   7  -3 -14 1466.32 253.462   1
   7  -3 -13 892.556 241.078   1
   7  -3 -12 1488.49 247.361   1
   7  -3 -11 365.480 243.554   1
   7  -3 -10 1281.00 267.808   1
   7  -3  -9 900.929 264.327   1
   7  -3  -8 3848.71 467.970   1
   7  -3  -7 232.500 335.456   1
   7  -3  -6 4510.52 281.428   1
   7  -3  -5 1350.78 217.366   1
   7  -3  -4 5629.04 547.580   1
   7  -3  -3 539.633 341.968   1
   7  -3  -2 2885.44 293.110   1
   7  -3  -1 365.116 226.636   1
   7  -3   0 8784.44 433.037   1
   7  -3   1 474.839 229.290   1
   7  -3   2 4347.05 353.845   1
   7  -3   3 105.114 237.327   1
   7  -3   4 5032.46 385.786   1
   7  -3   5-23.7524 233.133   1
   7  -3   6 1939.79 305.404   1
   7  -3   7 56.9295 243.709   1
   7  -3   8 2328.37 335.741   1
   7  -3   9 415.489 450.701   1
   7  -2 -16 320.561 334.423   1
   7  -2 -15 1744.07 263.897   1
   7  -2 -14 378.777 222.080   1
   7  -2 -13 2637.61 282.799   1
   7  -2 -12 319.356 217.915   1
   7  -2 -11 2174.71 296.715   1
   7  -2 -10 1798.51 291.071   1
   7  -2  -9 4686.72 375.560   1
   7  -2  -8 1101.67 368.125   1
   7  -2  -7 5018.12 529.152   1
   7  -2  -6 367.748 324.857   1
   7  -2  -5 4343.46 508.929   1
   7  -2  -4 1744.91 417.979   1
   7  -2  -3 5983.04 560.860   1
   7  -2  -2 388.350 329.716   1
   7  -2  -1 5008.11 539.486   1
   7  -2   0 40.0577 336.235   1
   7  -2   1 2911.69 448.365   1
   7  -2   2 556.544 321.809   1
   7  -2   3 5873.45 567.559   1
   7  -2   4 502.223 254.574   1
   7  -2   5 1089.27 281.272   1
   7  -2   6 48.9607 255.251   1
   7  -2   7 1672.25 311.522   1
   7  -2   8 52.3883 266.114   1
   7  -2   9 756.116 478.580   1
   7  -1 -16 591.085 319.124   1
   7  -1 -15 703.447 231.263   1
   7  -1 -14 1188.34 242.428   1
   7  -1 -13 729.764 234.518   1
   7  -1 -12 1592.99 299.556   1
   7  -1 -11 598.090 268.805   1
   7  -1 -10 3466.69 357.039   1
   7  -1  -9 296.214 253.775   1
   7  -1  -8 1856.63 408.884   1
   7  -1  -7 667.607 351.573   1
   7  -1  -6 7428.00 617.058   1
   7  -1  -5 955.143 360.594   1
   7  -1  -4 9037.52 661.733   1
   7  -1  -3 1226.99 399.756   1
   7  -1  -2 4118.02 508.120   1
   7  -1  -1 879.429 355.797   1
   7  -1   0 6040.89 565.189   1
   7  -1   1 204.970 338.865   1
   7  -1   2 5610.86 556.429   1
   7  -1   3 439.488 350.004   1
   7  -1   4 3131.29 473.437   1
   7  -1   5 430.386 318.307   1
   7  -1   6 1400.57 299.402   1
   7  -1   7 154.947 268.648   1
   7  -1   8 1402.25 511.836   1
   7   0 -16 593.155 230.982   1
   7   0 -15 1439.69 258.441   1
   7   0 -14 1036.33 254.614   1
   7   0 -13 2051.34 329.730   1
   7   0 -12 924.200 282.784   1
   7   0 -11 1907.43 306.792   1
   7   0 -10 271.343 241.874   1
   7   0  -9 2622.44 446.217   1
   7   0  -8 2032.82 418.469   1
   7   0  -7 5003.16 533.283   1
   7   0  -6 298.796 349.186   1
   7   0  -5 2680.13 446.103   1
   7   0  -4 290.982 346.007   1
   7   0  -3 3553.83 489.249   1
   7   0  -2 655.352 392.003   1
   7   0  -1 1349.00 384.590   1
   7   0   0 251.695 326.498   1
   7   0   1 5061.36 551.954   1
   7   0   2-174.490 339.450   1
   7   0   3 1982.39 422.240   1
   7   0   4 325.264 361.780   1
   7   0   5 1529.90 415.053   1
   7   0   6 605.486 385.120   1
   7   0   7 1206.24 392.056   1
   7   1 -16 818.897 242.386   1
   7   1 -15 279.526 234.005   1
   7   1 -14 1384.93 300.579   1
   7   1 -13 1215.15 300.188   1
   7   1 -12 2043.52 324.821   1
   7   1 -11 402.710 257.188   1
   7   1 -10 1610.42 298.953   1
   7   1  -9 768.246 368.836   1
   7   1  -8 4218.30 507.307   1
   7   1  -7 1305.06 409.175   1
   7   1  -6 4805.96 530.235   1
   7   1  -5 1562.09 386.139   1
   7   1  -4 4701.74 524.430   1
   7   1  -3 1178.72 372.887   1
   7   1  -2 8556.37 679.297   1
   7   1  -1 980.371 397.286   1
   7   1   0 4155.90 515.329   1
   7   1   1 445.608 334.602   1
   7   1   2 3353.82 496.825   1
   7   1   3 201.640 372.248   1
   7   1   4 7357.66 607.469   1
   7   1   5 640.860 371.075   1
   7   1   6 683.297 375.555   1
   7   1   7 266.287 317.405   1
   7   2 -16 757.556 248.295   1
   7   2 -15 717.048 299.224   1
   7   2 -14 1158.94 298.492   1
   7   2 -13 1801.70 318.040   1
   7   2 -12 1279.96 313.086   1
   7   2 -11 1453.34 302.286   1
   7   2 -10 709.299 399.712   1
   7   2  -9 3116.88 480.307   1
   7   2  -8 1423.32 407.893   1
   7   2  -7 2564.02 499.863   1
   7   2  -6 1067.20 390.165   1
   7   2  -5 4139.61 534.179   1
   7   2  -4 665.902 372.968   1
   7   2  -3 2719.16 489.779   1
   7   2  -2 455.205 349.885   1
   7   2  -1 1618.86 401.774   1
   7   2   0 1020.11 389.874   1
   7   2   1 1961.27 443.855   1
   7   2   2 756.505 399.772   1
   7   2   3 2056.47 436.267   1
   7   2   4 212.469 373.815   1
   7   2   5 1342.73 418.924   1
   7   2   6 197.884 390.545   1
   7   3 -15 139.998 284.585   1
   7   3 -14 1299.76 321.855   1
   7   3 -13 642.818 281.089   1
   7   3 -12 2218.93 336.320   1
   7   3 -11 1050.99 295.546   1
   7   3 -10 1582.62 423.731   1
   7   3  -9 421.196 355.543   1
   7   3  -8 1693.70 438.329   1
   7   3  -7 1171.52 419.556   1
   7   3  -6 6363.83 638.628   1
   7   3  -5 799.641 399.999   1
   7   3  -4 2203.33 468.386   1
   7   3  -3 849.070 425.492   1
   7   3  -2 4143.91 554.319   1
   7   3  -1 1639.47 440.595   1
   7   3   0 3249.52 517.453   1
   7   3   1 332.351 382.145   1
   7   3   2 2246.95 480.732   1
   7   3   3 128.264 393.941   1
   7   3   4 1181.36 419.271   1
   7   3   5 256.324 400.732   1
   7   4 -15 642.421 322.450   1
   7   4 -14 937.936 312.186   1
   7   4 -13 943.374 320.905   1
   7   4 -12 1495.90 329.588   1
   7   4 -11 944.307 273.634   1
   7   4 -10 352.490 233.538   1
   7   4  -9 1714.07 287.566   1
   7   4  -8 466.387 244.922   1
   7   4  -7 2630.54 324.415   1
   7   4  -6 2043.45 314.568   1
   7   4  -5 3466.88 352.720   1
   7   4  -4 293.176 258.054   1
   7   4  -3 1845.33 305.798   1
   7   4  -2 564.604 258.908   1
   7   4  -1 1091.52 272.245   1
   7   4   0 1041.56 427.836   1
   7   4   1 3214.62 549.546   1
   7   4   2 404.516 382.935   1
   7   4   3 577.645 431.544   1
   7   5 -14 1054.42 329.908   1
   7   5 -13 477.816 223.712   1
   7   5 -12 1686.79 303.697   1
   7   5 -11 1251.90 300.318   1
   7   5 -10 1314.40 296.939   1
   7   5  -9 541.799 266.223   1
   7   5  -8 2891.55 344.620   1
   7   5  -7 1272.79 292.974   1
   7   5  -6 2304.21 346.975   1
   7   5  -5 1081.36 302.051   1
   7   5  -4 2452.53 344.051   1
   7   5  -3 686.652 296.207   1
   7   5  -2 2730.90 355.256   1
   7   5  -1 480.199 287.217   1
   7   5   0 1828.24 322.088   1
   7   5   1 584.343 440.264   1
   7   5   2 2089.02 501.456   1
   7   6 -12 603.457 284.760   1
   7   6 -11 1146.80 314.490   1
   7   6 -10 751.460 306.934   1
   7   6  -9 1924.99 354.871   1
   7   6  -8 486.754 302.281   1
   7   6  -7 750.926 311.931   1
   7   6  -6 578.064 312.552   1
   7   6  -5 2609.87 390.955   1
   7   6  -4 1604.99 342.622   1
   7   6  -3 746.328 313.306   1
   7   6  -2 310.416 297.152   1
   7   6  -1 1551.49 316.086   1
   7   7  -9 787.441 329.212   1
   7   7  -8 1107.41 363.485   1
   7   7  -7 494.391 343.176   1
   7   7  -6 2052.10 403.447   1
   7   7  -5 453.018 337.548   1
   7   7  -4 1891.02 542.768   1
   8 -12  -3 740.159 330.641   1
   8 -12  -2 460.041 311.113   1
   8 -12  -1 1599.51 372.427   1
   8 -12   0 621.440 318.080   1
   8 -12   1 1049.49 343.445   1
   8 -11  -6 961.131 310.190   1
   8 -11  -5 158.653 298.388   1
   8 -11  -4 1815.16 348.489   1
   8 -11  -3 1322.54 337.856   1
   8 -11  -2 405.936 298.536   1
   8 -11  -1 893.308 328.680   1
   8 -11   0 791.692 319.907   1
   8 -11   1 546.419 309.470   1
   8 -11   2 1019.75 256.664   1
   8 -11   3 713.346 245.390   1
   8 -11   4 177.138 314.002   1
   8 -10  -8 1376.34 327.594   1
   8 -10  -7 564.472 294.346   1
   8 -10  -6 771.406 299.185   1
   8 -10  -5 1038.02 310.863   1
   8 -10  -4 961.989 311.803   1
   8 -10  -3 874.488 310.524   1
   8 -10  -2 1071.57 291.063   1
   8 -10  -1 565.311 297.678   1
   8 -10   0 1284.28 326.664   1
   8 -10   1 1451.82 246.276   1
   8 -10   2 718.070 236.479   1
   8 -10   3 1852.03 281.474   1
   8 -10   4 74.4668 234.320   1
   8 -10   5 1745.24 286.703   1
   8  -9 -10 952.323 424.668   1
   8  -9  -9 1434.31 472.861   1
   8  -9  -8 1975.39 498.769   1
   8  -9  -7 639.073 402.004   1
   8  -9  -6 222.244 281.387   1
   8  -9  -5 685.083 294.893   1
   8  -9  -4 1399.96 306.946   1
   8  -9  -3 2292.04 343.720   1
   8  -9  -2 1045.60 306.453   1
   8  -9  -1 698.749 292.863   1
   8  -9   0 836.680 229.806   1
   8  -9   1 575.409 228.023   1
   8  -9   2 630.785 226.209   1
   8  -9   3 1507.81 306.132   1
   8  -9   4 410.633 273.438   1
   8  -9   5 684.856 292.104   1
   8  -9   6 512.585 290.385   1
   8  -8 -11 702.588 415.818   1
   8  -8 -10 1224.33 428.658   1
   8  -8  -9 1450.66 434.972   1
   8  -8  -8 999.731 386.237   1
   8  -8  -7 1270.71 425.063   1
   8  -8  -6 984.496 427.255   1
   8  -8  -5 482.109 397.946   1
   8  -8  -4 774.123 404.273   1
   8  -8  -3 1346.57 432.543   1
   8  -8  -2 334.588 358.004   1
   8  -8  -1 2389.14 310.328   1
   8  -8   0 1474.92 273.475   1
   8  -8   1 1456.69 295.803   1
   8  -8   2 489.495 264.814   1
   8  -8   3 1067.62 291.371   1
   8  -8   4 693.770 296.643   1
   8  -8   5 998.043 307.215   1
   8  -8   6 408.740 302.155   1
   8  -7 -12 934.020 302.906   1
   8  -7 -11 987.352 448.338   1
   8  -7 -10 695.030 403.664   1
   8  -7  -9 1985.95 447.545   1
   8  -7  -8 1343.48 423.591   1
   8  -7  -7 1346.62 417.742   1
   8  -7  -6 1421.53 437.756   1
   8  -7  -5 544.389 373.009   1
   8  -7  -4 861.469 401.883   1
   8  -7  -3 1372.61 422.635   1
   8  -7  -2 918.987 410.178   1
   8  -7  -1 1911.27 291.411   1
   8  -7   0 550.166 264.995   1
   8  -7   1 1678.19 306.246   1
   8  -7   2 607.002 259.231   1
   8  -7   3 1917.91 315.035   1
   8  -7   4 446.931 271.385   1
   8  -7   5 126.173 279.875   1
   8  -7   6 612.686 290.601   1
   8  -7   7 1608.95 415.784   1
   8  -6 -13 116.572 292.309   1
   8  -6 -12 984.025 304.346   1
   8  -6 -11 891.394 418.534   1
   8  -6 -10 1221.76 423.990   1
   8  -6  -9 646.724 369.000   1
   8  -6  -8 1518.41 443.522   1
   8  -6  -7 2084.20 444.880   1
   8  -6  -6 2064.50 450.362   1
   8  -6  -5 542.604 374.451   1
   8  -6  -4 713.323 374.723   1
   8  -6  -3 719.820 387.491   1
   8  -6  -2 1663.67 267.766   1
   8  -6  -1 2049.41 293.588   1
   8  -6   0 1036.18 264.401   1
   8  -6   1 2041.01 308.675   1
   8  -6   2 658.229 282.082   1
   8  -6   3 2023.26 322.750   1
   8  -6   4 1517.40 310.935   1
   8  -6   5 1128.76 302.106   1
   8  -6   6 124.676 293.185   1
   8  -6   7 849.223 322.819   1
   8  -5 -13 1199.11 333.499   1
   8  -5 -12 344.146 290.631   1
   8  -5 -11 1294.36 312.162   1
   8  -5 -10 801.462 401.131   1
   8  -5  -9 1887.37 435.616   1
   8  -5  -8 1142.10 406.664   1
   8  -5  -7 3161.50 496.747   1
   8  -5  -6 645.405 354.669   1
   8  -5  -5 1168.32 405.759   1
   8  -5  -4 138.592 375.117   1
   8  -5  -3 1733.81 267.323   1
   8  -5  -2 789.643 229.854   1
   8  -5  -1 1482.46 276.466   1
   8  -5   0 738.873 267.284   1
   8  -5   1 1003.49 275.801   1
   8  -5   2 397.379 271.896   1
   8  -5   3 874.970 275.128   1
   8  -5   4 610.464 287.373   1
   8  -5   5 1142.47 317.841   1
   8  -5   6 542.129 295.633   1
   8  -5   7 402.589 398.038   1
   8  -4 -14 540.335 317.456   1
   8  -4 -13 227.540 281.856   1
   8  -4 -12 1526.02 318.645   1
   8  -4 -11 568.951 287.114   1
   8  -4 -10 797.254 414.253   1
   8  -4  -9 1818.14 472.210   1
   8  -4  -8 530.151 377.745   1
   8  -4  -7 1164.25 408.724   1
   8  -4  -6 2102.99 462.551   1
   8  -4  -5 2430.60 451.737   1
   8  -4  -4 619.538 227.790   1
   8  -4  -3 2147.74 283.440   1
   8  -4  -2 1121.43 266.494   1
   8  -4  -1 1735.90 297.659   1
   8  -4   0 1212.42 282.187   1
   8  -4   1 2807.01 336.281   1
   8  -4   2 518.989 259.220   1
   8  -4   3 1083.44 397.944   1
  -8   3  11 2761.02 606.220  -2
   8  -4   3 2761.02 606.220   1
   8  -4   4 1582.13 319.416   1
   8  -4   5 976.989 311.521   1
   8  -4   6 517.856 296.952   1
   8  -3 -14 456.302 290.093   1
   8  -3 -13 1931.26 344.837   1
   8  -3 -12 150.932 282.596   1
   8  -3 -11 1871.53 329.543   1
   8  -3 -10 126.408 363.413   1
   8  -3  -9 1893.94 445.704   1
   8  -3  -8 266.496 335.715   1
   8  -3  -7 2226.19 475.255   1
   8  -3  -6 879.006 389.091   1
   8  -3  -5 2366.43 279.717   1
   8  -3  -4 300.516 231.624   1
   8  -3  -3 646.542 242.344   1
   8  -3  -2 158.606 248.366   1
   8  -3  -1 2033.22 313.217   1
   8  -3   0 649.415 267.329   1
   8  -3   1 3225.93 362.621   1
   8  -3   2 1075.59 419.110   1
  -8   4  10 1654.80 567.970  -2
   8  -3   2 1654.80 567.970   1
   8  -3   3 301.742 261.920   1
   8  -3   4 345.868 284.205   1
   8  -3   5 1224.27 406.296   1
  -8   4  13 972.123 636.438  -2
   8  -3   5 972.123 636.438   1
   8  -3   6 445.530 381.650   1
  -8   4  14 519.051 635.035  -2
   8  -3   6 519.051 635.035   1
   8  -2 -14 745.781 311.311   1
   8  -2 -13 497.474 293.523   1
   8  -2 -12 957.647 303.347   1
   8  -2 -11 444.424 392.006   1
   8  -2 -10 1157.52 399.622   1
   8  -2  -9 1239.89 419.235   1
   8  -2  -8 1668.70 427.192   1
   8  -2  -7 1048.87 406.017   1
   8  -2  -6 2839.55 494.133   1
   8  -2  -5 926.786 420.807   1
   8  -2  -4 1543.58 415.276   1
   8  -2  -3 901.607 407.691   1
   8  -2  -2 2319.63 462.232   1
   8  -2  -1 2118.33 492.811   1
   8  -2   0 1323.58 417.871   1
   8  -2   1 1391.44 457.776   1
   8  -2   2 2299.71 485.914   1
  -8   5  10 3132.81 597.689  -2
   8  -2   2 3132.81 597.689   1
   8  -2   3 961.366 404.247   1
  -8   5  11 2771.09 614.219  -2
   8  -2   3 2771.09 614.219   1
   8  -2   4 1164.17 448.035   1
  -8   5  12 1637.47 625.668  -2
   8  -2   4 1637.47 625.668   1
   8  -2   5 1037.80 314.260   1
   8  -1 -14 207.548 280.759   1
   8  -1 -13 1485.57 327.741   1
   8  -1 -12 280.688 304.487   1
   8  -1 -11 1513.61 439.564   1
   8  -1 -10 63.9149 371.522   1
   8  -1  -9 1502.69 445.801   1
   8  -1  -8 238.742 393.680   1
   8  -1  -7 2526.99 497.136   1
   8  -1  -6 389.327 390.316   1
   8  -1  -5 1943.67 448.804   1
   8  -1  -4 354.740 413.581   1
   8  -1  -3 422.633 401.916   1
   8  -1  -2 415.732 381.031   1
   8  -1  -1 618.864 425.908   1
   8  -1   0 44.8422 399.691   1
   8  -1   1 1790.99 456.739   1
   8  -1   2 778.235 408.100   1
   8  -1   3 392.301 389.226   1
   8  -1   4 1234.21 412.630   1
   8  -1   5 1002.80 437.380   1
  -8   6  13 876.018 625.852  -2
   8  -1   5 876.018 625.852   1
   8   0 -14 960.554 330.652   1
   8   0 -13 836.161 311.400   1
   8   0 -12 1482.96 333.093   1
   8   0 -11 342.091 398.739   1
   8   0 -10 817.499 406.737   1
   8   0  -9 768.847 410.163   1
   8   0  -8 1341.07 449.403   1
   8   0  -7 2217.53 491.596   1
   8   0  -6 1646.47 449.511   1
   8   0  -5 1204.92 447.321   1
   8   0  -4 1591.12 446.090   1
   8   0  -3 726.630 387.300   1
   8   0  -2 1638.66 484.399   1
   8   0  -1 219.635 370.570   1
   8   0   0 1533.90 474.491   1
   8   0   1 1591.53 469.289   1
   8   0   2 1968.25 458.977   1
   8   0   3 957.005 422.858   1
   8   0   4 522.629 409.119   1
   8   1 -13 1410.28 337.910   1
   8   1 -12 496.078 418.129   1
   8   1 -11 1752.61 464.485   1
   8   1 -10 246.197 389.358   1
   8   1  -9 1312.39 448.512   1
   8   1  -8 267.122 403.195   1
   8   1  -7 1480.18 485.155   1
   8   1  -6 288.822 396.620   1
   8   1  -5 4890.13 616.230   1
   8   1  -4 529.325 415.659   1
   8   1  -3 583.473 417.600   1
   8   1  -2 416.883 378.798   1
   8   1  -1 1238.28 410.920   1
   8   1   0 1197.38 442.247   1
   8   1   1 2739.98 527.867   1
   8   1   2 762.692 424.069   1
   8   1   3 1743.06 495.832   1
   8   2 -13 891.591 324.859   1
   8   2 -12 1015.35 467.849   1
   8   2 -11 466.437 413.659   1
   8   2 -10 980.379 458.221   1
   8   2  -9 791.214 408.655   1
   8   2  -8 1446.52 471.566   1
   8   2  -7 545.859 409.532   1
   8   2  -6 1464.04 474.186   1
   8   2  -5 581.682 418.747   1
   8   2  -4 1352.45 460.166   1
   8   2  -3 684.221 454.470   1
   8   2  -2 709.434 417.273   1
   8   2  -1 135.898 409.652   1
   8   2   0 867.647 454.963   1
   8   2   1 489.423 430.672   1
   8   2   2 1645.77 485.792   1
   8   3 -12 464.208 436.139   1
   8   3 -11 991.279 462.690   1
   8   3 -10 29.9350 444.497   1
   8   3  -9 1265.85 482.958   1
   8   3  -8 255.589 427.951   1
   8   3  -7 1464.03 502.557   1
   8   3  -6 667.495 435.173   1
   8   3  -5 1393.85 489.046   1
   8   3  -4 413.341 439.648   1
   8   3  -3 1519.42 511.492   1
   8   3  -2 290.187 452.245   1
   8   3  -1 1129.66 449.843   1
   8   3   0-25.3393 442.747   1
   8   4 -10 723.898 447.840   1
   8   4  -9 6.09781 411.479   1
   8   4  -8 747.293 469.914   1
   8   4  -7 864.969 438.772   1
   8   4  -6 615.621 441.530   1
   8   4  -5 542.146 453.840   1
   8   4  -4 1827.49 541.575   1
   8   4  -3 61.9494 476.752   1
   9  -9  -4 318.976 418.726   1
   9  -9  -3 244.669 437.497   1
   9  -9  -2-92.7167 437.534   1
   9  -9  -1 732.169 459.581   1
   9  -8  -7 311.372 419.870   1
   9  -8  -6 1287.50 452.197   1
   9  -8  -5 101.414 444.415   1
   9  -8  -4 1369.75 456.694   1
   9  -8  -3 411.903 425.005   1
   9  -8  -2 1230.08 459.406   1
   9  -8  -1 337.284 430.932   1
   9  -8   0 1868.80 507.149   1
   9  -8   1 105.319 301.948   1
   9  -7  -8-20.0908 419.731   1
   9  -7  -7 341.277 396.084   1
   9  -7  -6 166.850 424.664   1
   9  -7  -5 1200.03 469.349   1
   9  -7  -4 539.518 402.434   1
   9  -7  -3 536.810 408.978   1
   9  -7  -2-154.893 403.678   1
   9  -7  -1 991.459 458.279   1
   9  -7   0 145.695 397.616   1
   9  -7   1 1431.59 318.867   1
   9  -7   2 106.462 307.052   1
   9  -6  -9 209.910 405.973   1
   9  -6  -8 970.290 433.681   1
   9  -6  -7 41.8814 411.116   1
   9  -6  -6 1830.87 493.365   1
   9  -6  -5 577.264 417.221   1
   9  -6  -4 697.376 434.929   1
   9  -6  -3 369.195 421.426   1
   9  -6  -2 903.656 454.159   1
   9  -6  -1 349.262 452.197   1
   9  -6   0 2203.40 331.935   1
   9  -6   1 404.298 284.624   1
   9  -6   2 626.656 312.562   1
   9  -5 -10-177.513 410.109   1
   9  -5  -9 1864.64 473.078   1
   9  -5  -8 206.897 384.999   1
   9  -5  -7 1044.83 445.828   1
   9  -5  -6 275.319 398.766   1
   9  -5  -5 988.124 425.930   1
   9  -5  -4 128.815 406.771   1
   9  -5  -3 988.481 427.925   1
   9  -5  -2-54.1585 409.562   1
   9  -5  -1 1340.90 301.700   1
   9  -5   0 146.870 278.774   1
   9  -5   1 2100.54 346.556   1
   9  -5   2 123.677 309.703   1
   9  -4 -10 1169.37 454.488   1
   9  -4  -9 183.730 434.794   1
   9  -4  -8 1614.91 465.782   1
   9  -4  -7 210.942 425.542   1
   9  -4  -6 917.011 428.611   1
   9  -4  -5 352.328 391.310   1
   9  -4  -4 692.292 455.911   1
   9  -4  -3 95.5606 404.846   1
   9  -4  -2 436.298 258.806   1
   9  -4  -1 286.170 278.378   1
   9  -4   0 842.703 300.990   1
   9  -4   1 154.195 298.961   1
   9  -4   2 1527.61 336.683   1
   9  -3 -10 18.7555 421.404   1
   9  -3  -9 1507.24 482.984   1
   9  -3  -8 514.826 431.566   1
   9  -3  -7 1354.71 473.918   1
   9  -3  -6 206.027 397.449   1
   9  -3  -5 24.5620 408.726   1
   9  -3  -4 263.111 398.938   1
   9  -3  -3 857.407 283.969   1
   9  -3  -2 92.8423 282.960   1
   9  -3  -1 965.342 286.973   1
   9  -3   0 235.287 293.396   1
   9  -3   1 1757.19 352.772   1
   9  -2 -10 1099.86 473.966   1
   9  -2  -9 244.294 422.529   1
   9  -2  -8 1331.34 474.268   1
   9  -2  -7-7.96466 424.661   1
   9  -2  -6 1291.76 486.232   1
   9  -2  -5 399.989 433.203   1
   9  -2  -4 1151.57 478.810   1
   9  -2  -3 128.693 431.086   1
   9  -2  -2 360.671 448.814   1
   9  -2  -1 39.1585 436.407   1
   9  -2   0 1576.78 343.312   1
   9  -1 -10-102.530 448.621   1
   9  -1  -9 618.065 459.603   1
   9  -1  -8 208.999 457.689   1
   9  -1  -7 1192.37 487.744   1
   9  -1  -6 185.404 436.679   1
   9  -1  -5 1680.41 501.766   1
   9  -1  -4 359.390 402.160   1
   9  -1  -3 412.751 451.260   1
   9  -1  -2 471.998 425.417   1
   9  -1  -1 1422.86 485.209   1
   9   0  -9 342.923 452.707   1
   9   0  -8 1037.64 457.220   1
   9   0  -7 252.149 441.089   1
   9   0  -6 1417.98 514.180   1
   9   0  -5 215.241 447.865   1
   9   0  -4 723.649 443.438   1
   9   0  -3 403.497 415.277   1
   9   0  -2 1445.47 500.458   1
   9   1  -6 233.728 442.957   2
   9   0  -2 1306.14 402.093   2
   9   0  -3 349.074 420.139   2
   9   0  -4 744.221 463.381   2
   9   0  -5 216.655 397.803   2
   9   0  -6 1537.28 465.302   2
   9   0  -7 565.405 430.827   2
   9   0  -8 822.796 465.970   2
   9   0  -9 202.967 410.576   2
   9  -1  -1 927.397 429.543   2
   9  -1  -2 136.113 429.170   2
   9  -1  -3 196.495 391.035   2
   9  -1  -4 266.611 444.201   2
   9  -1  -5 961.224 445.724   2
   9  -1  -6 153.020 413.940   2
   9  -1  -7 1191.41 465.882   2
   9  -1  -8-26.8180 394.708   2
   9  -1  -9 593.556 418.455   2
   9  -1 -10-68.7464 378.022   2
   9  -2   0 1355.74 470.312   2
   9  -2  -1 136.796 399.521   2
   9  -2  -2 884.838 465.803   2
   9  -2  -3 277.215 428.510   2
   9  -2  -4 1008.31 445.354   2
   9  -2  -5 340.942 409.592   2
   9  -2  -6 926.286 426.081   2
   9  -2  -7-85.4172 401.351   2
   9  -2  -8 1114.72 468.438   2
   9  -2  -9 160.170 374.520   2
   9  -2 -10 958.292 432.140   2
   9  -3   1 1699.30 483.513   2
   9  -3   0 136.253 400.934   2
   9  -3  -1 653.145 434.599   2
   9  -3  -2 184.765 398.912   2
   9  -3  -4-73.5668 412.979   2
   9  -3  -5 402.149 404.945   2
   9  -3  -6 240.953 381.150   2
   9  -3  -7 1241.33 457.074   2
   9  -3  -8 392.235 422.447   2
   9  -3  -9 1578.07 459.166   2
   9  -3 -10 125.730 410.681   2
   9  -4  -2 252.252 400.810   2
   9  -4  -3 358.592 420.609   2
   9  -4  -4 439.732 411.024   2
   9  -4  -5 346.926 371.485   2
   9  -4  -6 939.648 444.905   2
   9  -4  -7 446.194 327.425   2
   9  -4  -8 2820.75 794.335   2
   9  -4  -9 133.636 664.187   2
   9  -5  -6-1.76398 665.432   2
   9  -5  -7 1222.46 700.367   2
   9  -5  -8-582.550 668.582   2
   9  -5  -9 1943.11 786.016   2
   9  -5 -10 175.533 749.812   2
   9  -6  -5 202.509 590.624   2
   9  -6  -6 2012.78 669.064   2
   9  -6  -7 184.997 596.047   2
   9  -6  -8 1028.80 663.796   2
   9  -6  -9-83.0130 735.459   2
   9  -7  -4-672.842 512.952   2
   9  -7  -5 861.463 606.380   2
   9  -7  -6-130.401 594.896   2
   9  -7  -7 351.027 640.030   2
   9  -7  -8-320.557 710.403   2
   9  -8  -3 461.840 525.018   2
   9  -8  -4 1522.73 648.763   2
   9  -8  -5 26.5673 624.452   2
   9  -8  -6 1938.93 698.194   2
   9  -8  -7 94.6372 752.188   2
   9  -9  -3 330.283 579.629   2
   9  -9  -4-47.2218 568.763   2
   8   4  -3 320.266 404.089   2
   8   4  -4 2163.11 529.257   2
   8   4  -5 335.095 417.588   2
   8   4  -6 988.470 430.932   2
   8   4  -7 652.553 434.527   2
   8   4  -8 1295.61 469.135   2
   8   4  -9 273.148 450.846   2
   8   4 -10 1686.97 522.611   2
   8   3   0 581.203 417.505   2
   8   3  -1 1441.49 432.777   2
   8   3  -2 78.9358 399.347   2
   8   3  -3 1865.54 488.513   2
   8   3  -4 529.593 415.999   2
   8   3  -5 1310.10 451.588   2
   8   3  -6 590.513 434.759   2
   8   3  -7 1316.62 480.751   2
   8   3  -8 532.945 410.613   2
   8   3  -9 1403.19 451.025   2
   8   3 -10 324.508 376.416   2
   8   3 -11 941.946 451.866   2
   8   3 -12 654.835 465.335   2
   8   2   2 2309.27 497.947   2
   8   2   1 689.654 413.301   2
   8   2   0 1021.88 431.541   2
   8   2  -1 287.400 398.160   2
   8   2  -2 516.633 404.304   2
   8   2  -3 496.922 386.328   2
   8   2  -4 1918.46 447.796   2
   8   2  -5 387.247 397.893   2
   8   2  -6 2038.67 479.489   2
   8   2  -7 364.918 380.046   2
   8   2  -8 2028.89 461.659   2
   8   2  -9 878.880 439.460   2
   8   2 -10 2149.94 487.316   2
   8   2 -11 362.989 386.686   2
   8   2 -12 930.746 392.963   2
   8   2 -13 992.822 424.123   2
   8   1   3 1167.10 443.625   2
   8   1   2 188.361 370.463   2
   8   1   1 3238.10 487.334   2
   8   1   0 853.918 393.707   2
   8   1  -1 1660.57 461.903   2
   8   1  -2 373.475 386.044   2
   8   1  -3 294.356 383.435   2
   8   1  -4 418.273 397.438   2
   8   1  -5 5652.61 610.098   2
   8   1  -6 249.548 375.427   2
   8   1  -7 1623.54 434.175   2
   8   1  -8 63.3608 378.802   2
   8   1  -9 1062.69 426.581   2
   8   1 -10 250.321 397.409   2
   8   1 -11 1345.18 457.060   2
   8   1 -12 946.627 440.288   2
   8   1 -13 1453.12 456.001   2
   8   1 -14 451.651 396.623   2
   8   0   4 647.306 397.447   2
   8   0   3 455.666 378.501   2
   8   0   2 1595.27 436.474   2
   8   0   1 1735.90 443.056   2
   8   0   0 1777.96 452.855   2
   8   0  -1 438.779 399.548   2
   8   0  -2 1546.15 425.560   2
   8   0  -3 489.617 393.037   2
   8   0  -4 1434.74 423.047   2
   8   0  -5 881.306 389.790   2
   8   0  -6 1671.21 440.769   2
   8   0  -7 2067.34 459.021   2
   8   0  -8 1862.55 455.101   2
   8   0  -9 901.783 394.383   2
   8   0 -10 717.960 384.515   2
   8   0 -11 353.488 385.518   2
   8   0 -12 1295.93 419.055   2
   8   0 -13 1139.95 423.862   2
   8   0 -14 614.495 395.638   2
   8  -1   5 854.800 325.714   2
   8  -1   4 926.572 414.972   2
   8  -1   3 565.766 364.377   2
   8  -1   2 492.315 375.767   2
   8  -1   1 1844.70 437.025   2
   8  -1   0 418.347 355.781   2
   8  -1  -1 757.672 392.083   2
   8  -1  -2 876.356 393.567   2
   8  -1  -3 762.142 386.526   2
   8  -1  -4 674.446 368.941   2
   8  -1  -5 1766.84 408.829   2
   8  -1  -6 181.477 352.270   2
   8  -1  -7 2546.45 480.786   2
   8  -1  -8 261.292 352.485   2
   8  -1  -9 1402.68 421.368   2
   8  -1 -10 320.783 381.041   2
   8  -1 -11 2325.63 479.592   2
   8  -1 -12 85.7009 375.844   2
   8  -1 -13 1994.77 428.386   2
   8  -1 -14-71.2838 372.084   2
   8  -2   5 795.071 405.610   2
   8  -2   4 978.311 388.778   2
   8  -2   3 837.565 420.353   2
   8  -2   2 1396.51 441.084   2
   8  -2   1 1406.22 435.674   2
   8  -2   0 702.699 411.923   2
   8  -2  -1 2122.43 453.343   2
   8  -2  -2 2317.24 464.088   2
   8  -2  -3 1395.60 408.662   2
   8  -2  -4 965.720 387.015   2
   8  -2  -5 792.573 379.230   2
   8  -2  -6 2258.32 452.658   2
   8  -2  -7 1431.77 406.539   2
   8  -2  -8 1464.78 386.089   2
   8  -2  -9 1610.14 404.976   2
   8  -2 -10 775.846 358.577   2
   8  -2 -11 187.033 380.212   2
   8  -2 -12 918.198 368.478   2
   8  -2 -13 398.168 366.408   2
   8  -2 -14 552.155 351.249   2
   8  -3   6 4.86350 623.811   2
   8  -3   4 14.4620 375.465   2
   8  -3   3 62.3013 390.171   2
   8  -3   2 630.970 399.412   2
   8  -3   1 3659.04 508.335   2
   8  -3   0 722.803 392.073   2
   8  -3  -1 1775.25 421.291   2
   8  -3  -2-40.4049 365.734   2
   8  -3  -3 758.511 366.679   2
   8  -3  -4 46.0151 328.973   2
   8  -3  -5 2248.75 358.708   2
   8  -3  -6 695.647 325.714   2
   8  -3  -7 2151.59 355.610   2
   8  -3  -8 193.102 312.528   2
   8  -3  -9 1288.07 351.920   2
   8  -3 -10 301.710 324.526   2
   8  -3 -11 2307.50 468.513   2
   8  -3 -12 327.602 360.627   2
   8  -4   0 1188.76 395.600   2
   8  -4  -1 1774.09 451.932   2
   8  -4  -2 980.891 387.696   2
   8  -4  -3 2017.73 339.031   2
   8  -4  -4 675.065 314.604   2
   8  -4  -5 2699.02 364.750   2
   8  -4  -6 1799.87 357.262   2
   8  -4  -7 1404.38 415.535   2
   8  -4  -8 974.179 661.022   2
   8  -4 -11 587.881 718.879   2
   8  -4 -12 1243.79 796.705   2
   8  -5  -2 1126.25 499.138   2
   8  -5  -4 90.0135 477.597   2
   8  -5  -5 382.698 543.204   2
   8  -5  -6 478.381 521.501   2
   8  -5  -8 509.519 683.235   2
   8  -5  -9 2074.55 742.163   2
   8  -5 -13 369.151 763.737   2
   8  -6  -2 1492.71 485.914   2
   8  -6  -4 1269.94 577.584   2
   8  -6  -5 465.113 539.411   2
   8  -6  -6 1816.08 615.903   2
   8  -6  -7 1615.43 643.984   2
   8  -6  -8 942.539 633.989   2
   8  -6 -11-211.917 701.863   2
   8  -7  -1 1858.32 497.846   2
   8  -7  -5-56.5288 513.443   2
   8  -7  -6 887.329 563.358   2
   8  -7  -7 919.660 568.703   2
   8  -7  -9 2078.35 715.904   2
   8  -7 -11 566.268 749.852   2
   8  -8   0 1123.47 450.129   2
   8  -8  -1 2100.10 515.832   2
   8  -8  -2 61.1255 447.495   2
   8  -8  -5 477.911 527.351   2
   8  -8  -7 1573.93 639.275   2
   8  -8  -9 783.917 673.291   2
   8  -8 -11 630.504 759.719   2
   8  -9   1 532.105 398.814   2
   8  -9   0 1440.45 434.168   2
   8  -9  -1 794.653 478.386   2
   8  -9  -3 2400.50 579.296   2
   8  -9  -5 427.859 528.039   2
   8  -9  -7 1214.92 628.672   2
   8  -9 -10 1314.60 719.632   2
   8 -10   1 1212.13 466.776   2
   8 -10   0 1431.92 406.834   2
   8 -10  -1 892.257 486.614   2
   8 -10  -3 1268.96 550.751   2
   8 -10  -6 499.902 618.853   2
   8 -11   2 500.189 448.742   2
   8 -11   1 854.559 444.171   2
   8 -11  -1 814.877 487.186   2
   8 -11  -6 1175.71 603.725   2
   8 -12   0 1258.91 501.015   2
   8 -12  -1 1942.67 610.253   2
   8 -12  -2 508.613 504.855   2
   7   7  -4 2449.88 559.729   2
   7   7  -5 636.681 451.003   2
   7   7  -6 2562.75 539.837   2
   7   7  -7 93.0693 433.995   2
   7   7  -8 1714.59 497.343   2
   7   7  -9 1274.56 475.313   2
   7   6  -1 1455.65 320.327   2
   7   6  -2 416.246 425.954   2
   7   6  -3 1375.98 453.432   2
   7   6  -4 1966.44 522.309   2
   7   6  -5 3182.49 560.695   2
   7   6  -6 527.410 417.401   2
   7   6  -7 785.172 408.145   2
   7   6  -8 213.673 411.817   2
   7   6  -9 1990.04 520.569   2
   7   6 -10 1059.17 443.411   2
   7   6 -11 1104.49 491.035   2
   7   6 -12 677.677 502.793   2
   7   5   2 2327.68 335.720   2
   7   5   1 482.719 273.396   2
   7   5   0 1966.08 315.484   2
   7   5  -1 637.990 275.094   2
   7   5  -2 3215.44 531.609   2
   7   5  -3 822.353 389.871   2
   7   5  -4 2597.07 496.876   2
   7   5  -5 1618.95 429.791   2
   7   5  -6 2797.61 523.782   2
   7   5  -7 1224.17 425.398   2
   7   5  -8 3767.47 546.476   2
   7   5  -9 569.887 411.852   2
   7   5 -10 1345.34 458.910   2
   7   5 -11 1639.25 463.617   2
   7   5 -12 2093.89 499.884   2
   7   5 -13 558.350 446.544   2
   7   5 -14 950.596 447.745   2
   7   4   3 867.387 228.543   2
   7   4   2 163.915 217.050   2
   7   4   1 2624.74 328.336   2
   7   4   0 1149.18 271.380   2
   7   4  -1 1271.56 449.258   2
   7   4  -2 370.428 380.739   2
   7   4  -3 1876.07 460.385   2
   7   4  -4 717.603 386.115   2
   7   4  -5 4065.21 556.297   2
   7   4  -6 2027.07 478.027   2
   7   4  -7 2729.82 494.861   2
   7   4  -8 734.828 389.627   2
   7   4  -9 1397.19 457.438   2
   7   4 -10 531.096 401.872   2
   7   4 -11 1906.29 477.503   2
   7   4 -12 1604.87 455.009   2
   7   4 -13 1331.58 482.314   2
   7   4 -14 837.026 430.710   2
   7   4 -15 977.395 398.165   2
   7   3   5 537.888 285.701   2
   7   3   4 1592.59 254.454   2
   7   3   3 170.438 219.981   2
   7   3   2 2072.96 252.372   2
   7   3   1 135.288 231.946   2
   7   3   0 3468.50 332.205   2
   7   3  -1 1354.43 390.311   2
   7   3  -2 3531.83 507.627   2
   7   3  -3 1088.70 385.195   2
   7   3  -4 2823.95 489.342   2
   7   3  -5 799.534 402.001   2
   7   3  -6 7216.66 656.984   2
   7   3  -7 928.801 411.368   2
   7   3  -8 2836.26 469.677   2
   7   3  -9 731.167 419.612   2
   7   3 -10 1858.44 435.719   2
   7   3 -11 1390.54 432.234   2
   7   3 -12 2059.22 453.525   2
   7   3 -13 746.665 417.437   2
   7   3 -14 1123.33 408.539   2
   7   3 -15 134.686 380.134   2
   7   2   6 67.4088 288.094   2
   7   2   5 809.675 279.792   2
   7   2   4 301.483 278.193   2
   7   2   3 1886.21 244.782   2
   7   2   2 593.973 211.988   2
   7   2   1 2112.94 285.818   2
   7   2   0 1160.95 246.124   2
   7   2  -1 1731.99 409.722   2
   7   2  -2 114.801 340.404   2
   7   2  -3 2818.09 458.069   2
   7   2  -4 772.714 361.200   2
   7   2  -5 4625.71 535.380   2
   7   2  -6 949.298 361.843   2
   7   2  -7 3038.51 464.688   2
   7   2  -8 1450.07 422.023   2
   7   2  -9 3430.66 489.726   2
   7   2 -10 691.332 354.285   2
   7   2 -11 1716.01 428.378   2
   7   2 -12 2002.80 429.112   2
   7   2 -13 2443.77 490.343   2
   7   2 -14 1054.90 388.252   2
   7   2 -15 932.928 411.576   2
   7   2 -16 856.589 406.648   2
   7   1   7 184.506 271.676   2
   7   1   6 621.656 292.329   2
   7   1   5 623.885 294.168   2
   7   1   4 5055.38 421.263   2
   7   1   3 557.575 271.892   2
   7   1   2 3247.49 365.962   2
   7   1   1 359.480 218.940   2
   7   1   0 4580.71 317.432   2
   7   1  -1 960.361 379.197   2
   7   1  -2 8257.19 632.800   2
   7   1  -3 1117.81 381.826   2
   7   1  -4 5389.10 549.436   2
   7   1  -5 979.774 361.751   2
   7   1  -6 4244.96 519.064   2
   7   1  -7 1306.22 377.089   2
   7   1  -8 5318.00 553.052   2
   7   1  -9 894.280 363.443   2
   7   1 -10 1680.05 400.948   2
   7   1 -11 466.174 316.283   2
   7   1 -12 2714.31 464.843   2
   7   1 -13 1209.72 397.163   2
   7   1 -14 1338.05 392.109   2
   7   1 -15 218.831 334.491   2
   7   1 -16 727.103 375.965   2
   7   0   7 953.142 290.242   2
   7   0   6 251.144 279.478   2
   7   0   5 719.984 279.778   2
   7   0   4 435.594 257.073   2
   7   0   3 1185.20 307.458   2
   7   0   2 132.067 334.125   2
   7   0   1 4521.47 514.634   2
   7   0   0 358.539 186.922   2
   7   0  -1 948.390 368.427   2
   7   0  -2 1247.65 375.974   2
   7   0  -3 2967.13 440.473   2
   7   0  -4 189.393 312.250   2
   7   0  -5 2369.16 416.542   2
   7   0  -6 871.960 351.396   2
   7   0  -7 5705.70 538.778   2
   7   0  -8 2010.43 426.169   2
   7   0  -9 1919.17 414.655   2
   7   0 -10 325.898 319.702   2
   7   0 -11 2169.57 437.949   2
   7   0 -12 917.711 349.403   2
   7   0 -13 2576.22 421.154   2
   7   0 -14 911.496 342.908   2
   7   0 -15 1501.83 365.416   2
   7  -1   8 1017.76 598.026   2
   7  -1   7 225.283 274.998   2
   7  -1   6 1174.00 317.668   2
   7  -1   5 271.802 276.980   2
   7  -1   4 2632.08 350.845   2
   7  -1   3 730.206 289.237   2
   7  -1   2 6700.11 563.504   2
   7  -1   1 134.870 312.108   2
   7  -1   0 5714.96 543.167   2
   7  -1  -1 1173.95 353.608   2
   7  -1  -2 3126.33 448.616   2
   7  -1  -3 1124.64 352.306   2
   7  -1  -4 8396.12 621.951   2
   7  -1  -5 521.247 310.026   2
   7  -1  -6 7333.58 583.290   2
   7  -1  -7 711.250 351.696   2
   7  -1  -8 1408.50 380.791   2
   7  -1  -9 420.001 335.240   2
   7  -1 -10 3972.33 466.912   2
   7  -1 -11 732.732 343.420   2
   7  -1 -12 2149.07 381.845   2
   7  -1 -13 779.014 359.895   2
   7  -1 -14 1037.22 324.027   2
   7  -1 -15 756.673 351.448   2
   7  -2   9 317.172 597.661   2
   7  -2   8-35.2835 620.064   2
   7  -2   7 1785.70 326.921   2
   7  -2   6 82.2618 267.392   2
   7  -2   5 878.222 295.047   2
   7  -2   4 626.586 285.936   2
   7  -2   3 4438.72 479.499   2
   7  -2   2 482.449 330.650   2
   7  -2   1 2868.69 440.563   2
   7  -2   0-100.344 316.313   2
   7  -2  -1 5288.72 510.623   2
   7  -2  -2 512.852 338.253   2
   7  -2  -3 5148.13 521.149   2
   7  -2  -4 1281.95 357.952   2
   7  -2  -5 2789.67 424.331   2
   7  -2  -6 468.250 258.151   2
   7  -2  -7 5192.00 426.442   2
   7  -2  -8 485.508 264.962   2
   7  -2  -9 4591.10 415.237   2
   7  -2 -10 1797.42 375.807   2
   7  -2 -11 2206.90 398.762   2
   7  -2 -12 673.036 329.316   2
   7  -2 -13 3009.12 424.060   2
   7  -2 -14 85.7874 293.118   2
   7  -3   9 54.7889 618.210   2
   7  -3   8 1385.95 624.452   2
   7  -3   7-312.806 589.141   2
   7  -3   6 1301.37 601.588   2
   7  -3   5 385.846 527.159   2
   7  -3   4 3578.75 376.877   2
   7  -3   3 294.390 336.419   2
   7  -3   2 4660.22 510.212   2
   7  -3   1 530.015 320.792   2
   7  -3   0 8207.32 611.821   2
   7  -3  -1 298.433 237.066   2
   7  -3  -2 3316.92 457.196   2
   7  -3  -3 294.452 257.503   2
   7  -3  -4 5882.43 417.311   2
   7  -3  -5 1639.86 308.062   2
   7  -3  -6 4116.18 383.166   2
   7  -3  -7 314.471 268.676   2
   7  -3  -8 3647.51 380.196   2
   7  -3  -9 706.345 295.719   2
   7  -3 -10 1262.21 313.507   2
   7  -3 -11 172.028 281.312   2
   7  -3 -12 1924.06 746.290   2
   7  -3 -13 945.015 712.860   2
   7  -3 -14 1887.60 841.470   2
   7  -4   9 867.450 645.521   2
   7  -4   8 111.332 571.702   2
   7  -4   7 1157.33 640.284   2
   7  -4   6 286.757 574.497   2
   7  -4   5 427.437 530.234   2
   7  -4   1 4743.38 507.728   2
   7  -4   0 163.215 233.735   2
   7  -4  -1 5434.00 392.977   2
   7  -4  -2 295.029 244.297   2
   7  -4  -3 5052.38 397.521   2
   7  -4  -4 223.583 254.985   2
   7  -4  -5 4971.07 403.350   2
   7  -4  -6 438.136 273.090   2
   7  -4  -7 7530.59 480.792   2
   7  -4  -8 94.5990 587.411   2
   7  -4  -9 4264.21 754.660   2
   7  -4 -10 184.844 621.592   2
   7  -4 -11 2484.03 728.356   2
   7  -4 -12 862.126 695.581   2
   7  -4 -13 2356.92 838.700   2
   7  -4 -14-98.8403 745.263   2
   7  -4 -15 1047.02 854.978   2
   7  -4 -16 370.100 820.044   2
   7  -5  10 515.505 630.031   2
   7  -5   9 331.716 583.119   2
   7  -5   8 860.180 633.579   2
   7  -5   7 253.183 603.351   2
   7  -5   6 1450.42 570.580   2
   7  -5   1 254.776 333.713   2
   7  -5   0 4867.24 529.980   2
   7  -5  -1 292.897 383.338   2
   7  -5  -2 2477.32 471.538   2
   7  -5  -3 456.750 410.031   2
   7  -5  -4 5063.41 652.155   2
   7  -5  -5 932.577 486.457   2
   7  -5  -6 4135.39 695.044   2
   7  -5  -7 227.068 533.844   2
   7  -5  -8 1692.65 607.885   2
   7  -5  -9 480.081 570.271   2
   7  -5 -10 3891.41 781.035   2
   7  -5 -11 538.312 644.839   2
   7  -5 -12 1145.80 724.748   2
   7  -5 -13 658.911 725.753   2
   7  -5 -14 1016.36 690.175   2
   7  -5 -15-54.3598 836.644   2
   7  -6  10 851.647 660.719   2
   7  -6   9 775.101 629.262   2
   7  -6   8 134.690 613.462   2
   7  -6   7 800.491 565.672   2
   7  -6   2 34.8230 299.867   2
   7  -6   1 3922.66 475.183   2
   7  -6   0 16.6214 349.481   2
   7  -6  -1 9989.28 736.581   2
   7  -6  -2 589.463 365.810   2
   7  -6  -3 7867.49 723.640   2
   7  -6  -4 372.163 419.412   2
   7  -6  -5 5998.34 710.131   2
   7  -6  -6 699.078 507.594   2
   7  -6  -7 5012.02 730.125   2
   7  -6  -8 85.1364 551.784   2
   7  -6  -9 5414.66 851.553   2
   7  -6 -10 1009.63 635.185   2
   7  -6 -11 1856.32 675.328   2
   7  -6 -12 623.712 718.889   2
   7  -6 -13 907.682 718.602   2
   7  -6 -14 166.795 730.440   2
   7  -7  10 1085.28 699.764   2
   7  -7   9 3.28717 648.908   2
   7  -7   2 3489.90 435.305   2
   7  -7   1 690.611 330.149   2
   7  -7   0 4565.83 518.705   2
   7  -7  -1 196.111 344.640   2
   7  -7  -2 1821.36 439.795   2
   7  -7  -3 234.754 407.795   2
   7  -7  -4 2799.65 539.821   2
   7  -7  -5 400.929 512.785   2
   7  -7  -6 1550.85 595.061   2
   7  -7  -7 528.993 475.696   2
   7  -7  -8 2812.27 668.673   2
   7  -7  -9 507.143 609.372   2
   7  -7 -10 1718.03 700.464   2
   7  -7 -11 541.120 669.256   2
   7  -7 -12 141.134 662.228   2
   7  -7 -13 746.839 755.588   2
   7  -7 -14 2198.51 932.808   2
   7  -8   3 2164.42 385.550   2
   7  -8   2 126.511 330.270   2
   7  -8   1 8767.86 649.347   2
   7  -8   0 475.365 369.429   2
   7  -8  -1 4815.92 572.250   2
   7  -8  -2-151.124 371.979   2
   7  -8  -3 5207.40 653.463   2
   7  -8  -4 96.2986 451.530   2
   7  -8  -5 7406.83 784.711   2
   7  -8  -6 392.302 486.074   2
   7  -8  -7 3544.39 678.954   2
   7  -8  -8 51.2294 523.612   2
   7  -8  -9 1834.36 686.538   2
   7  -8 -10-154.942 645.069   2
   7  -8 -11 3571.14 827.649   2
   7  -8 -12 485.838 716.830   2
   7  -8 -13 379.721 765.771   2
   7  -9   4 1377.73 362.167   2
   7  -9   3-0.80332 306.025   2
   7  -9   2 5741.12 558.817   2
   7  -9   1-137.980 352.438   2
   7  -9   0 3140.88 489.769   2
   7  -9  -1-155.090 389.370   2
   7  -9  -2 4403.10 583.332   2
   7  -9  -3 198.565 428.425   2
   7  -9  -4 2293.35 546.450   2
   7  -9  -5-1.34646 492.174   2
   7  -9  -6 2904.62 637.936   2
   7  -9  -7 256.885 514.042   2
   7  -9  -8 2415.63 684.628   2
   7  -9  -9-12.3993 640.363   2
   7  -9 -10 2424.16 745.097   2
   7  -9 -11 471.672 716.335   2
   7  -9 -12 783.106 714.252   2
   7 -10   4 101.737 334.025   2
   7 -10   3 2840.91 440.144   2
   7 -10   2 455.367 365.402   2
   7 -10   1 3519.74 521.084   2
   7 -10   0 1037.56 424.268   2
   7 -10  -1 5628.63 645.419   2
   7 -10  -2 369.004 413.067   2
   7 -10  -3 2873.82 530.492   2
   7 -10  -4 176.702 464.054   2
   7 -10  -5 3997.68 693.251   2
   7 -10  -6 269.912 499.847   2
   7 -10  -7 2876.75 686.684   2
   7 -10  -8 23.7265 597.798   2
   7 -10  -9 622.231 662.586   2
   7 -10 -10 621.227 678.438   2
   7 -10 -11 1202.78 709.072   2
   7 -11   5 194.668 311.403   2
   7 -11   4 3069.40 470.875   2
   7 -11   3 239.623 322.704   2
   7 -11   2 1652.08 452.100   2
   7 -11   1 21.6612 391.820   2
   7 -11   0 3918.92 571.302   2
   7 -11  -1 4.61974 409.020   2
   7 -11  -2 3572.02 602.809   2
   7 -11  -3-166.768 476.559   2
   7 -11  -4 1637.20 523.267   2
   7 -11  -5 325.388 500.654   2
   7 -11  -6 2618.92 659.937   2
   7 -11  -7 885.033 603.738   2
   7 -11  -8 2489.39 732.222   2
   7 -11  -9 93.4520 670.283   2
   7 -12   6 177.764 354.831   2
   7 -12   5 4216.42 529.945   2
   7 -12   4 500.484 370.260   2
   7 -12   3 1728.69 465.658   2
   7 -12   2 363.402 368.207   2
   7 -12   1 4641.13 610.404   2
   7 -12   0 261.634 445.331   2
   7 -12  -1 3425.69 599.204   2
   7 -12  -2-97.3142 462.669   2
   7 -12  -3 2839.87 615.480   2
   7 -12  -4 107.887 491.880   2
   7 -12  -5 2371.01 630.815   2
   7 -12  -6-60.8655 567.375   2
   7 -12  -7 2772.24 703.176   2
   7 -13   4 1258.14 422.223   2
   7 -13   3 119.954 440.807   2
   7 -13   2 2208.96 512.335   2
   7 -13   1 197.316 417.513   2
   7 -13   0 1325.14 508.246   2
   7 -13  -1-72.8539 494.803   2
   7 -13  -2 2658.91 653.185   2
   7 -13  -3-90.0614 543.984   2
   7 -13  -4 1725.38 643.169   2
   6   9  -4 2089.67 536.595   2
   6   9  -5 98.3434 410.071   2
   6   9  -6 606.412 410.457   2
   6   9  -7 154.715 421.734   2
   6   9  -8 1319.94 453.356   2
   6   9  -9 267.539 416.442   2
   6   8   0-78.1723 299.881   2
   6   8  -1 1112.42 336.843   2
   6   8  -2 108.532 432.984   2
   6   8  -3 1928.26 464.804   2
   6   8  -4-133.360 438.176   2
   6   8  -5 993.254 447.058   2
   6   8  -6 49.9119 397.417   2
   6   8  -7 328.176 394.886   2
   6   8  -8 184.737 394.233   2
   6   8  -9 1249.53 478.752   2
   6   8 -10 25.8298 398.427   2
   6   8 -11 1344.24 492.605   2
   6   8 -12-173.223 477.774   2
   6   8 -13 1236.39 477.230   2
   6   7   2 1668.21 319.041   2
   6   7   1 316.842 290.214   2
   6   7   0 2193.56 335.027   2
   6   7  -1 220.526 364.774   2
   6   7  -2 1506.61 421.704   2
   6   7  -3 368.852 374.049   2
   6   7  -4 927.502 411.970   2
   6   7  -5 341.931 372.429   2
   6   7  -6 2766.01 509.294   2
   6   7  -7 180.245 412.996   2
   6   7  -8 2213.57 462.454   2
   6   7  -9 141.460 375.177   2
   6   7 -10 1008.25 436.024   2
   6   7 -11 279.371 428.181   2
   6   7 -12 1876.55 520.040   2
   6   7 -13 342.450 418.731   2
   6   7 -14 1206.56 479.795   2
   6   6   4 148.317 253.973   2
   6   6   3 1864.02 315.157   2
   6   6   2 324.701 258.997   2
   6   6   1 1073.93 290.724   2
   6   6   0 379.366 254.058   2
   6   6  -1 2356.25 445.679   2
   6   6  -2 160.922 378.854   2
   6   6  -3 560.059 359.717   2
   6   6  -4 408.519 360.128   2
   6   6  -5 2871.44 486.918   2
   6   6  -6 696.867 372.072   2
   6   6  -7 1344.22 435.474   2
   6   6  -8 106.817 363.534   2
   6   6  -9 1056.53 411.699   2
   6   6 -10 241.182 373.105   2
   6   6 -11 1642.66 458.865   2
   6   6 -12 235.952 384.446   2
   6   6 -13 2390.90 495.425   2
   6   6 -14 101.520 408.998   2
   6   6 -15 1647.82 497.366   2
   6   5   5 332.860 210.431   2
   6   5   4 2069.20 260.985   2
   6   5   3 157.826 202.730   2
   6   5   2 2462.05 257.151   2
   6   5   1 1217.84 224.756   2
   6   5   0 1183.27 212.724   2
   6   5  -1 263.137 330.422   2
   6   5  -2 3572.79 474.846   2
   6   5  -3 550.673 359.249   2
   6   5  -4 3895.87 507.978   2
   6   5  -5 71.2492 339.453   2
   6   5  -6 588.146 362.230   2
   6   5  -7 60.9036 329.254   2
   6   5  -8 3299.17 497.530   2
   6   5  -9 1282.31 400.450   2
   6   5 -10 2636.15 499.090   2
   6   5 -11 606.879 379.187   2
   6   5 -12 2900.24 506.633   2
   6   5 -13 256.932 361.374   2
   6   5 -14 1272.04 423.877   2
   6   5 -15 438.221 365.190   2
   6   5 -16 1358.09 427.628   2
   6   4   7 632.718 305.393   2
   6   4   6 203.884 202.956   2
   6   4   5 1906.19 250.244   2
   6   4   4 391.928 205.397   2
   6   4   3 4046.83 287.934   2
   6   4   2 324.132 204.085   2
   6   4   1 1798.89 220.245   2
   6   4   0 718.033 191.090   2
   6   4  -1 1835.09 397.760   2
   6   4  -2 271.459 331.862   2
   6   4  -3 3188.43 447.257   2
   6   4  -4 136.398 310.931   2
   6   4  -5 1902.77 406.056   2
   6   4  -6 485.791 332.593   2
   6   4  -7 1778.84 404.493   2
   6   4  -8 46.8594 325.039   2
   6   4  -9 3014.92 458.654   2
   6   4 -10 469.901 385.786   2
   6   4 -11 1756.05 424.674   2
   6   4 -12 709.120 352.239   2
   6   4 -13 1694.66 419.699   2
   6   4 -14 92.8692 338.138   2
   6   4 -15 1653.51 437.821   2
   6   4 -16 125.174 355.788   2
   6   3   8 2136.48 365.280   2
   6   3   7 307.779 203.897   2
   6   3   6 973.614 222.625   2
   6   3   5 217.548 197.240   2
   6   3   4 1187.77 223.713   2
   6   3   3 1160.38 204.349   2
   6   3   2 4037.54 271.984   2
   6   3   1 660.549 183.774   2
   6   3   0 1240.71 254.232   2
   6   3  -1 250.478 307.316   2
   6   3  -2 2897.69 437.965   2
   6   3  -3 75.7635 311.437   2
   6   3  -4 901.643 340.375   2
   6   3  -5 680.490 326.052   2
   6   3  -6 4892.71 512.700   2
   6   3  -7 592.143 310.383   2
   6   3  -8 2903.92 436.017   2
   6   3  -9 490.337 351.193   2
   6   3 -10 2933.27 449.677   2
   6   3 -11 583.768 358.944   2
   6   3 -12 3095.74 465.457   2
   6   3 -13 56.9811 336.864   2
   6   3 -14 2917.88 425.760   2
   6   3 -15 178.606 315.796   2
   6   3 -16 2215.43 421.307   2
   6   2   9 889.177 322.095   2
   6   2   8 582.906 308.253   2
   6   2   7 1449.88 235.275   2
   6   2   6 391.399 190.757   2
   6   2   5 2610.43 249.063   2
   6   2   4 658.868 193.575   2
   6   2   3 2093.97 221.421   2
   6   2   2 980.433 185.397   2
   6   2   1 4139.87 262.474   2
   6   2   0 2282.79 390.435   2
   6   2  -1 1650.59 369.662   2
   6   2  -2-113.432 297.394   2
   6   2  -3 2390.33 394.649   2
   6   2  -4 1889.20 386.566   2
   6   2  -5 5014.68 506.271   2
   6   2  -6 402.909 290.982   2
   6   2  -7 835.208 316.783   2
   6   2  -8 858.979 329.717   2
   6   2  -9 1730.29 383.176   2
   6   2 -10 1438.19 369.343   2
   6   2 -11 1867.42 373.154   2
   6   2 -12 508.533 294.538   2
   6   2 -13 2411.69 395.926   2
   6   2 -14 117.852 290.708   2
   6   2 -15 1047.47 351.887   2
   6   2 -16 280.317 283.144   2
   6   2 -18 261.450 471.006   2
   6   1   9 794.756 531.328   2
   6   1   8 2368.87 355.283   2
   6   1   7 974.827 213.735   2
   6   1   6 841.673 197.571   2
   6   1   5 1173.77 204.283   2
   6   1   4 2615.80 233.779   2
   6   1   3 621.829 174.852   2
   6   1   2 4323.73 260.432   2
   6   1   1 472.766 160.833   2
   6   1   0 2781.54 394.420   2
   6   1  -1 1526.88 329.021   2
   6   1  -2 4662.68 472.018   2
   6   1  -3 658.254 293.836   2
   6   1  -4 5688.99 500.388   2
   6   1  -5 1102.23 305.831   2
   6   1  -6 1930.29 332.326   2
   6   1  -7 813.517 316.163   2
   6   1  -8 2913.30 409.804   2
   6   1  -9 884.030 322.802   2
   6   1 -10 7991.14 574.535   2
   6   1 -11 849.282 313.627   2
   6   1 -12 2623.96 405.839   2
   6   1 -13 814.450 304.187   2
   6   1 -14 2591.28 416.423   2
   6   1 -15 175.462 310.557   2
   6   1 -18 778.704 511.342   2
   6   0  10 764.910 604.384   2
   6   0   9 754.117 531.967   2
   6   0   8 879.385 271.798   2
   6   0   7 2078.92 238.033   2
   6   0   6 851.552 198.343   2
   6   0   5 1419.44 208.338   2
   6   0   4 419.717 164.171   2
   6   0   3 2203.84 213.301   2
   6   0   2 1338.97 180.605   2
   6   0   1 3943.63 234.364   2
   6   0   0 740.644 177.158   2
   6   0  -1 539.523 289.515   2
   6   0  -2 807.442 298.372   2
   6   0  -3 1462.26 328.126   2
   6   0  -4 348.909 273.815   2
   6   0  -5 2315.94 364.864   2
   6   0  -6 1169.93 306.685   2
   6   0  -7 2252.09 371.208   2
   6   0  -8 1268.89 337.398   2
   6   0  -9 1886.00 363.938   2
   6   0 -10 571.658 291.911   2
   6   0 -11 1590.58 343.505   2
   6   0 -12 1198.89 317.393   2
   6   0 -13 1943.26 349.758   2
   6   0 -14 232.130 270.559   2
   6   0 -15 1981.13 350.188   2
   6   0 -18 900.752 502.495   2
   6  -1  11 479.229 617.284   2
   6  -1  10 269.813 587.227   2
   6  -1   9 844.200 552.206   2
   6  -1   8 2904.94 334.007   2
   6  -1   7 833.089 257.142   2
   6  -1   6 3828.33 257.791   2
   6  -1   5 623.054 173.914   2
   6  -1   4 2422.06 211.686   2
   6  -1   3 1797.71 197.434   2
   6  -1   2 2920.96 204.870   2
   6  -1   1 438.598 158.287   2
   6  -1   0 9481.37 328.068   2
   6  -1  -1 1371.26 328.514   2
   6  -1  -2 4688.03 447.826   2
   6  -1  -3 118.593 260.194   2
   6  -1  -4 3341.59 399.140   2
   6  -1  -5 635.068 274.055   2
   6  -1  -6 11855.5 639.246   2
   6  -1  -7 536.164 257.849   2
   6  -1  -8 2409.23 369.956   2
   6  -1  -9 197.149 239.043   2
   6  -1 -10 2986.91 393.155   2
   6  -1 -11 1920.49 338.886   2
   6  -1 -12 4151.16 424.382   2
   6  -1 -13 1023.50 309.574   2
   6  -1 -14 2131.17 357.499   2
   6  -1 -15 1021.89 302.498   2
   6  -1 -18 868.585 482.703   2
   6  -2  11 1258.90 606.501   2
   6  -2  10 662.397 541.739   2
   6  -2   9 739.264 543.650   2
   6  -2   8 872.093 546.121   2
   6  -2   7 3139.17 331.540   2
   6  -2   6 1632.15 277.733   2
   6  -2   5 1751.19 285.094   2
   6  -2   4 850.700 164.437   2
   6  -2   3 532.183 153.568   2
   6  -2   2 1897.53 170.851   2
   6  -2   1 3074.10 196.414   2
   6  -2   0 2450.76 162.981   2
   6  -2  -1 1157.60 227.200   2
   6  -2  -2 701.659 217.710   2
   6  -2  -3 1093.00 236.326   2
   6  -2  -4 1564.68 253.534   2
   6  -2  -5 983.168 236.858   2
   6  -2  -6 512.910 229.910   2
   6  -2  -7 2641.50 304.035   2
   6  -2  -8 968.782 249.462   2
   6  -2  -9 892.168 259.204   2
   6  -2 -10 210.889 238.960   2
   6  -2 -11 2674.73 330.796   2
   6  -2 -12 437.415 262.671   2
   6  -2 -13 2954.54 343.429   2
   6  -3  12 11.3513 607.287   2
   6  -3  11 493.615 638.834   2
   6  -3  10 673.671 581.803   2
   6  -3   9 909.018 581.239   2
   6  -3   8 838.404 507.193   2
   6  -3   7 589.502 509.994   2
   6  -3   6 668.961 489.252   2
   6  -3   5 682.791 242.843   2
   6  -3   4 5893.84 389.707   2
   6  -3   3 886.527 246.539   2
   6  -3   2 2386.54 148.112   2
   6  -3   1 834.258 114.221   2
   6  -3   0 4608.14 166.696   2
   6  -3  -1 689.128 107.534   2
   6  -3  -2 6165.34 362.260   2
   6  -3  -3 991.936 223.841   2
   6  -3  -4 5697.65 373.551   2
   6  -3  -5 398.831 224.085   2
   6  -3  -6 3795.00 341.162   2
   6  -3  -7 1241.07 266.054   2
   6  -3  -8 3605.14 340.777   2
   6  -3  -9 780.642 259.214   2
   6  -3 -10 4246.15 367.793   2
   6  -3 -11 846.895 631.496   2
   6  -3 -12 3017.84 750.660   2
   6  -3 -13 2217.72 736.318   2
   6  -3 -14 2128.80 797.319   2
   6  -3 -15-279.281 760.935   2
   6  -3 -17 361.809 471.520   2
   6  -4  12 1147.16 659.201   2
   6  -4  11 878.689 616.248   2
   6  -4  10 1132.46 601.356   2
   6  -4   9 1837.07 631.777   2
   6  -4   8 1101.90 553.780   2
   6  -4   7 1193.17 542.680   2
   6  -4   6 1404.85 530.652   2
   6  -4   5 873.140 437.616   2
   6  -4   4 744.551 442.577   2
   6  -4   3 2777.67 314.942   2
   6  -4   2 3011.54 345.867   2
   6  -4   1 1085.33 296.098   2
   6  -4   0 255.240 198.292   2
   6  -4  -1 784.078 76.8147   2
   6  -4  -2 2382.66 270.622   2
   6  -4  -3 1181.27 242.562   2
   6  -4  -4 702.891 224.665   2
   6  -4  -5 785.873 237.882   2
   6  -4  -6 1005.53 501.060   2
   6  -4  -7 2884.31 583.244   2
   6  -4  -8 165.367 488.607   2
   6  -4  -9 2198.77 597.606   2
   6  -4 -10-14.3624 550.454   2
   6  -4 -11 2091.55 659.476   2
   6  -4 -12 609.920 621.703   2
   6  -4 -13 3538.16 809.042   2
   6  -4 -14 114.234 790.124   2
   6  -4 -15 1848.83 848.588   2
   6  -4 -16 331.369 872.681   2
   6  -4 -17 1233.55 456.865   2
   6  -5  12 708.818 659.811   2
   6  -5  11 234.593 633.417   2
   6  -5  10 988.055 633.289   2
   6  -5   9 637.039 524.557   2
   6  -5   8 882.521 558.651   2
   6  -5   7 313.336 503.071   2
   6  -5   6 5258.39 676.753   2
   6  -5   5 1048.22 483.827   2
   6  -5   4 2215.56 284.305   2
   6  -5   3 814.919 252.516   2
   6  -5   2 2462.72 336.990   2
   6  -5   1 1603.99 301.142   2
   6  -5   0 9051.68 273.005   2
   6  -5  -1 1106.46 105.072   2
   6  -5  -2 2381.86 429.465   2
   6  -5  -3 803.858 361.048   2
   6  -5  -4 6284.16 638.369   2
   6  -5  -5 2730.26 521.426   2
   6  -5  -6 4986.19 635.227   2
   6  -5  -7 1174.77 479.570   2
   6  -5  -8 2913.97 606.042   2
   6  -5  -9 1479.24 551.725   2
   6  -5 -10 1361.60 620.485   2
   6  -5 -11 898.776 582.079   2
   6  -5 -12 2750.75 781.364   2
   6  -5 -13 1323.80 659.722   2
   6  -5 -14 3215.71 896.936   2
   6  -5 -15 1019.91 832.345   2
   6  -5 -16 1403.67 839.862   2
   6  -6  12 886.625 647.231   2
   6  -6  11 670.776 612.556   2
   6  -6  10 761.662 611.537   2
   6  -6   9 675.508 592.015   2
   6  -6   8 1807.88 598.695   2
   6  -6   7 1064.89 563.300   2
   6  -6   6 806.679 524.529   2
   6  -6   5 246.605 210.026   2
   6  -6   4 1322.90 259.124   2
   6  -6   3 2034.73 320.323   2
   6  -6   2 1779.95 317.333   2
   6  -6   1 816.682 289.298   2
   6  -6   0 2846.34 187.204   2
   6  -6  -1 1845.66 144.824   2
   6  -6  -2 650.370 92.0738   2
   6  -6  -3 1849.19 413.329   2
   6  -6  -4 478.739 377.547   2
   6  -6  -5 1658.69 466.370   2
   6  -6  -6 489.930 415.154   2
   6  -6  -7 2497.89 532.707   2
   6  -6  -8 552.303 469.702   2
   6  -6  -9 2433.72 622.338   2
   6  -6 -10 114.110 585.199   2
   6  -6 -11 2864.64 745.557   2
   6  -6 -12-111.962 574.804   2
   6  -6 -13 1478.72 717.588   2
   6  -6 -14 1119.27 788.275   2
   6  -6 -15 1182.51 869.735   2
   6  -6 -16 208.558 411.230   2
   6  -7  12 74.2324 621.027   2
   6  -7  11 370.768 564.796   2
   6  -7  10 1395.23 644.160   2
   6  -7   9 232.607 583.570   2
   6  -7   8 725.940 558.340   2
   6  -7   7 1023.24 547.111   2
   6  -7   5 2094.42 298.387   2
   6  -7   4 7325.07 473.697   2
   6  -7   3 327.557 251.090   2
   6  -7   2 4074.72 419.253   2
   6  -7   1 1740.68 188.259   2
   6  -7   0 1131.30 158.198   2
   6  -7  -1 124.600 123.878   2
   6  -7  -2 3327.28 182.569   2
   6  -7  -3 1053.24 397.774   2
   6  -7  -4 3989.06 527.630   2
   6  -7  -5 1998.93 474.025   2
   6  -7  -6 1475.06 460.403   2
   6  -7  -7 1065.64 493.655   2
   6  -7  -8 2552.01 604.868   2
   6  -7  -9 832.172 540.325   2
   6  -7 -10 990.916 565.311   2
   6  -7 -11 1442.59 627.380   2
   6  -7 -12 1722.76 736.531   2
   6  -7 -13 741.277 708.096   2
   6  -7 -14 2145.44 840.863   2
   6  -7 -15 377.968 777.208   2
   6  -8  12 494.701 613.165   2
   6  -8  11 88.1067 596.600   2
   6  -8  10 483.875 616.508   2
   6  -8   9 1105.40 585.325   2
   6  -8   6 1342.77 273.846   2
   6  -8   5 896.762 280.736   2
   6  -8   4 1501.36 296.930   2
   6  -8   3 1584.72 218.016   2
   6  -8   2 990.564 194.408   2
   6  -8   1 461.374 170.439   2
   6  -8   0 1024.74 171.460   2
   6  -8  -1 3804.89 232.254   2
   6  -8  -2 3966.15 233.067   2
   6  -8  -3 1653.73 417.630   2
   6  -8  -4 885.720 393.709   2
   6  -8  -5 3265.46 554.988   2
   6  -8  -6 1235.51 476.191   2
   6  -8  -7 2644.31 557.585   2
   6  -8  -8 415.363 520.207   2
   6  -8  -9 2339.36 603.624   2
   6  -8 -10 1205.78 579.121   2
   6  -8 -11 1651.35 697.803   2
   6  -8 -12 465.609 670.208   2
   6  -8 -13 2267.09 795.345   2
   6  -8 -14-121.404 767.974   2
   6  -9  12 225.066 670.807   2
   6  -9  11 410.679 601.631   2
   6  -9  10 328.547 590.214   2
   6  -9   7 1683.14 303.419   2
   6  -9   6 3130.50 372.362   2
   6  -9   5 841.867 270.548   2
   6  -9   4 753.997 196.076   2
   6  -9   3 1002.43 208.224   2
   6  -9   2 2690.35 247.453   2
   6  -9   1 1327.02 201.810   2
   6  -9   0 1556.07 203.967   2
   6  -9  -1 1824.92 212.925   2
   6  -9  -2 661.721 168.965   2
   6  -9  -3 147.017 378.123   2
   6  -9  -4 1579.89 448.554   2
   6  -9  -5 1387.95 442.938   2
   6  -9  -6 915.176 506.983   2
   6  -9  -7 925.060 484.571   2
   6  -9  -8 1725.44 535.596   2
   6  -9  -9 866.746 533.320   2
   6  -9 -10 1438.93 663.868   2
   6  -9 -11 934.591 653.078   2
   6  -9 -12 856.862 685.968   2
   6  -9 -13 403.251 723.294   2
   6 -10   7 73.5669 266.685   2
   6 -10   6 1194.53 327.794   2
   6 -10   5 281.835 209.755   2
   6 -10   4 2167.66 258.938   2
   6 -10   3 574.556 205.282   2
   6 -10   2 1357.22 221.955   2
   6 -10   1 1169.14 209.417   2
   6 -10   0 1505.45 222.494   2
   6 -10  -1 1052.40 208.041   2
   6 -10  -2 805.786 199.644   2
   6 -10  -3 1841.64 462.127   2
   6 -10  -4 2112.22 510.829   2
   6 -10  -5 1768.02 493.723   2
   6 -10  -6 1002.77 491.491   2
   6 -10  -7 2054.77 556.382   2
   6 -10  -8 1067.85 519.802   2
   6 -10  -9 2410.81 635.757   2
   6 -10 -10 1278.87 640.333   2
   6 -10 -11 1216.46 656.953   2
   6 -10 -12 450.103 700.307   2
   6 -11   8 842.285 348.464   2
   6 -11   7 1367.49 261.956   2
   6 -11   6 918.175 256.004   2
   6 -11   5 1567.66 263.208   2
   6 -11   4 2163.90 271.742   2
   6 -11   3 755.518 224.371   2
   6 -11   2 2796.81 279.229   2
   6 -11   1 853.013 225.387   2
   6 -11   0 165.772 193.053   2
   6 -11  -1 411.218 204.134   2
   6 -11  -2 2558.45 268.222   2
   6 -11  -3 1221.22 465.969   2
   6 -11  -4 1442.37 480.654   2
   6 -11  -5 939.849 491.027   2
   6 -11  -6 1423.68 549.226   2
   6 -11  -7 740.104 541.778   2
   6 -11  -8 1942.81 595.150   2
   6 -11  -9 675.667 552.610   2
   6 -11 -10 971.803 624.077   2
   6 -12   9 611.192 344.443   2
   6 -12   8 1120.97 268.835   2
   6 -12   7 299.967 231.623   2
   6 -12   6 1325.19 280.146   2
   6 -12   5 637.117 246.015   2
   6 -12   4 775.757 246.202   2
   6 -12   3 315.637 216.071   2
   6 -12   2 2197.45 283.853   2
   6 -12   1 1066.77 246.782   2
   6 -12   0 1451.54 259.679   2
   6 -12  -1 1227.24 252.327   2
   6 -12  -2 1510.89 454.332   2
   6 -12  -3 1083.41 456.414   2
   6 -12  -4 1007.65 507.447   2
   6 -12  -5 1474.26 558.158   2
   6 -12  -6 1625.61 554.349   2
   6 -12  -7 1007.07 560.364   2
   6 -12  -8 267.315 601.767   2
   6 -12  -9 1136.25 638.689   2
   6 -13   8 734.212 295.677   2
   6 -13   7 751.717 279.670   2
   6 -13   6 158.599 247.360   2
   6 -13   5 474.508 272.235   2
   6 -13   4 243.897 257.325   2
   6 -13   3 1447.23 286.954   2
   6 -13   2 721.182 252.700   2
   6 -13   1 915.033 255.309   2
   6 -13   0 1420.96 289.148   2
   6 -13  -1 972.747 490.164   2
   6 -13  -2 11.2017 433.902   2
   6 -13  -3 787.271 518.444   2
   6 -13  -4 935.488 522.717   2
   6 -13  -5 512.526 568.515   2
   6 -13  -6 1557.52 631.053   2
   6 -13  -7 823.280 543.710   2
   6 -14   6 1466.83 302.102   2
   6 -14   5 686.603 302.109   2
   6 -14   4 1021.75 294.093   2
   6 -14   3 625.414 278.452   2
   6 -14   2 1186.56 294.281   2
   6 -14   1 876.384 291.727   2
   6 -14   0 1727.32 495.943   2
   6 -14  -1 320.526 468.503   2
   6 -14  -2 768.178 507.388   2
   6 -14  -3 2005.26 584.000   2
   6 -14  -4 1275.08 571.139   2
   5  10  -1 1029.31 423.509   2
   5  10  -2-124.229 380.461   2
   5  10  -3 140.638 413.807   2
   5  10  -4 742.781 436.490   2
   5  10  -5 402.006 410.436   2
   5  10  -9 371.509 394.832   2
   5  10 -10 428.993 449.347   2
   5  10 -11 819.884 420.483   2
   5  10 -12 345.064 437.110   2
   5   9   2 416.592 296.979   2
   5   9   1 1558.04 320.053   2
   5   9   0 526.089 290.432   2
   5   9  -1 534.377 379.223   2
   5   9  -2 282.205 354.345   2
   5   9  -3 315.128 389.302   2
   5   9  -4 349.145 382.342   2
   5   9  -5 2404.46 473.107   2
   5   9  -6 399.277 404.397   2
   5   9  -7 167.109 406.568   2
   5   9  -8 852.424 404.245   2
   5   9  -9 60.1923 369.236   2
   5   9 -10 362.931 400.432   2
   5   9 -11 425.654 383.188   2
   5   9 -12 360.770 419.920   2
   5   9 -13 1084.64 432.546   2
   5   9 -14 616.208 433.079   2
   5   8   4 1070.43 297.465   2
   5   8   3 1637.76 323.857   2
   5   8   2 1054.38 289.296   2
   5   8   1 614.253 282.469   2
   5   8   0 928.733 277.278   2
   5   8  -1 1163.49 375.633   2
   5   8  -2 1143.68 396.990   2
   5   8  -3 1629.03 425.897   2
   5   8  -4 664.439 360.460   2
   5   8  -5 1526.55 417.408   2
   5   8  -6 669.214 376.030   2
   5   8  -7 579.564 366.827   2
   5   8  -8 217.735 350.288   2
   5   8  -9 1524.79 438.195   2
   5   8 -10 75.4725 357.062   2
   5   8 -11 1071.04 406.666   2
   5   8 -12 1341.61 429.826   2
   5   8 -13 687.674 371.798   2
   5   8 -14 187.701 273.560   2
   5   8 -15 612.110 281.702   2
   5   7   6 498.399 254.777   2
   5   7   5 2080.72 307.422   2
   5   7   4 448.724 263.571   2
   5   7   3 1045.21 273.702   2
   5   7   2 1213.13 281.778   2
   5   7   1 1123.59 275.543   2
   5   7   0 154.691 194.990   2
   5   7  -1 977.275 215.092   2
   5   7  -2 924.379 219.223   2
   5   7  -3 1336.40 231.836   2
   5   7  -4 702.605 212.749   2
   5   7  -5 429.757 205.826   2
   5   7  -6 459.343 207.702   2
   5   7  -7 595.941 207.896   2
   5   7  -8 791.903 227.274   2
   5   7  -9 611.934 207.292   2
   5   7 -10 1097.47 393.835   2
   5   7 -11 647.123 351.286   2
   5   7 -12 1111.07 410.158   2
   5   7 -13 1201.98 410.696   2
   5   7 -14 837.221 412.666   2
   5   7 -15 93.0369 264.562   2
   5   7 -16 673.749 274.029   2
   5   6   7 657.679 335.128   2
   5   6   6 564.901 212.100   2
   5   6   5 596.744 170.580   2
   5   6   4 2460.30 209.947   2
   5   6   3 526.942 162.754   2
   5   6   2 1321.60 172.408   2
   5   6   1 1517.81 170.320   2
   5   6   0 923.038 167.206   2
   5   6  -1 895.144 157.188   2
   5   6  -2 1143.18 200.233   2
   5   6  -3 1048.67 202.956   2
   5   6  -4 40.8943 172.624   2
   5   6  -5 552.050 189.130   2
   5   6  -6 2282.71 244.953   2
   5   6  -7 1580.17 224.179   2
   5   6  -8 416.468 182.530   2
   5   6  -9 2182.50 249.467   2
   5   6 -10 317.741 200.011   2
   5   6 -11 810.455 346.992   2
   5   6 -12 831.606 371.253   2
   5   6 -13 699.002 337.149   2
   5   6 -14 1136.11 393.312   2
   5   6 -15 1196.89 297.531   2
   5   6 -16 690.610 286.558   2
   5   6 -17 185.169 423.853   2
   5   5   8 545.104 332.088   2
   5   5   7 1758.55 251.411   2
   5   5   6 488.571 162.807   2
   5   5   5 1666.17 186.711   2
   5   5   4 339.533 147.998   2
   5   5   3 1943.72 180.301   2
   5   5   2 553.768 140.969   2
   5   5   1 3245.22 192.102   2
   5   5   0 990.946 159.659   2
   5   5  -1 1884.49 172.799   2
   5   5  -2 167.229 149.813   2
   5   5  -3 2050.72 213.635   2
   5   5  -4 1016.13 194.485   2
   5   5  -5 3182.28 247.016   2
   5   5  -6 3071.46 241.698   2
   5   5  -7 3348.12 249.272   2
   5   5  -8 86.4053 168.787   2
   5   5  -9 1105.97 200.647   2
   5   5 -10 890.179 336.169   2
   5   5 -11 399.856 323.167   2
   5   5 -12 489.632 318.672   2
   5   5 -13 2203.70 435.631   2
   5   5 -14 909.996 354.222   2
   5   5 -15 396.585 346.183   2
   5   5 -16 1062.79 278.846   2
   5   5 -17 225.451 423.656   2
   5   5 -18 462.630 407.403   2
   5   4   9 141.941 331.762   2
   5   4   8 1664.11 349.504   2
   5   4   7 1027.14 216.409   2
   5   4   6 1559.85 222.803   2
   5   4   5 1214.17 203.677   2
   5   4   4 2943.15 195.525   2
   5   4   3 434.388 129.005   2
   5   4   2 648.801 129.368   2
   5   4   1 1837.48 153.843   2
   5   4   0 1737.46 158.322   2
   5   4  -1 682.328 131.033   2
   5   4  -2 2164.02 191.216   2
   5   4  -3 3051.90 216.670   2
   5   4  -4 813.014 150.947   2
   5   4  -5 1405.14 166.705   2
   5   4  -6 249.944 139.378   2
   5   4  -7 624.290 158.193   2
   5   4  -8 1370.54 181.772   2
   5   4  -9 1515.94 353.014   2
   5   4 -10 1180.34 330.702   2
   5   4 -11 2201.43 391.618   2
   5   4 -12 1274.04 358.149   2
   5   4 -13 1720.64 363.312   2
   5   4 -14 2566.03 417.750   2
   5   4 -15 1388.02 369.114   2
   5   4 -16 1301.42 267.895   2
   5   4 -17 638.003 424.225   2
   5   4 -18 533.267 459.037   2
   5   3  10 309.780 316.715   2
   5   3   9 1927.34 351.862   2
   5   3   8 202.299 274.563   2
   5   3   7 2386.98 238.345   2
   5   3   6 696.114 187.364   2
   5   3   5 2111.27 217.822   2
   5   3   4 459.389 169.383   2
   5   3   3 4235.93 254.758   2
   5   3   2 126.814 108.889   2
   5   3   1 2979.02 165.142   2
   5   3   0 1339.30 139.784   2
   5   3  -1 1100.72 128.694   2
   5   3  -2 82.6314 111.860   2
   5   3  -3 5621.97 234.773   2
   5   3  -4 41.8738 106.947   2
   5   3  -5 342.624 111.940   2
   5   3  -6 1415.18 147.813   2
   5   3  -7 3079.41 407.527   2
   5   3  -8 916.885 303.748   2
   5   3  -9 3431.52 413.056   2
   5   3 -10 602.193 310.133   2
   5   3 -11 554.537 304.406   2
   5   3 -12 1174.25 325.811   2
   5   3 -13 1565.45 347.198   2
   5   3 -14 152.572 279.760   2
   5   3 -15 857.573 300.634   2
   5   3 -16 1229.86 261.148   2
   5   3 -17 235.852 434.072   2
   5   3 -18 710.624 457.827   2
   5   3 -19 109.088 448.068   2
   5   2  11 407.714 523.295   2
   5   2  10 2838.42 384.922   2
   5   2   9 135.300 288.469   2
   5   2   8 2446.54 239.217   2
   5   2   7 1029.27 194.741   2
   5   2   6 1788.42 203.755   2
   5   2   5 1956.56 209.514   2
   5   2   4 2938.59 227.584   2
   5   2   3 187.147 158.717   2
   5   2   2 1424.06 174.599   2
   5   2   1 1354.74 122.784   2
   5   2   0 2297.97 146.176   2
   5   2  -1 3039.26 162.184   2
   5   2  -2 1100.73 112.266   2
   5   2  -3 841.882 90.1539   2
   5   2  -4 2260.63 331.662   2
   5   2  -5 1465.97 307.916   2
   5   2  -6 3063.04 386.383   2
   5   2  -7 3197.08 379.499   2
   5   2  -8 803.900 279.379   2
   5   2  -9 1204.17 307.855   2
   5   2 -10 4855.72 447.079   2
   5   2 -11 1257.83 301.845   2
   5   2 -12 926.894 287.774   2
   5   2 -13 1892.39 330.922   2
   5   2 -14 2213.05 344.192   2
   5   2 -15 1523.84 307.575   2
   5   2 -16 1716.50 460.339   2
   5   2 -17 637.441 429.428   2
   5   2 -18 292.553 417.177   2
   5   2 -19 377.946 459.810   2
   5   1  12 84.3492 579.461   2
   5   1  11 1695.08 625.926   2
   5   1  10 535.664 488.940   2
   5   1   9 1717.56 329.639   2
   5   1   8 164.507 167.610   2
   5   1   7 4032.69 255.455   2
   5   1   6 266.936 167.011   2
   5   1   5 1578.40 188.568   2
   5   1   4 1132.76 170.811   2
   5   1   3 3650.99 225.344   2
   5   1   2 503.407 146.611   2
   5   1   1 3373.64 208.725   2
   5   1   0 919.211 102.347   2
   5   1  -1 3731.42 128.731   2
   5   1  -2 867.516 142.086   2
   5   1  -3 2648.46 172.975   2
   5   1  -4 105.411 226.196   2
   5   1  -5 1691.91 307.187   2
   5   1  -6 1565.46 302.642   2
   5   1  -7 3267.66 369.075   2
   5   1  -8 601.365 272.369   2
   5   1  -9 728.801 277.174   2
   5   1 -10 1296.14 285.352   2
   5   1 -11 2009.04 319.467   2
   5   1 -12 1043.84 283.197   2
   5   1 -13 450.742 246.110   2
   5   1 -14 1475.61 293.357   2
   5   1 -15 1251.49 286.048   2
   5   1 -17 452.024 392.218   2
   5   1 -18 927.622 454.346   2
   5   1 -19 759.493 473.517   2
   5   0  12 759.028 547.802   2
   5   0  11 369.426 567.316   2
   5   0  10 3039.49 645.886   2
   5   0   9 421.929 222.359   2
   5   0   8 1156.29 188.001   2
   5   0   7 475.481 170.611   2
   5   0   6 2541.82 216.154   2
   5   0   5 1402.52 182.670   2
   5   0   4 2838.77 208.207   2
   5   0   3 2332.80 188.820   2
   5   0   2 997.364 153.310   2
   5   0   1 741.850 99.0619   2
   5   0   0 3777.75 110.158   2
   5   0  -1 2611.25 166.239   2
   5   0  -2 1766.37 149.928   2
   5   0  -5 441.122 227.544   2
   5   0  -6 810.283 260.388   2
   5   0  -7 1669.86 294.739   2
   5   0  -8 3090.31 344.353   2
   5   0  -9 577.278 231.056   2
   5   0 -10 3727.19 378.646   2
   5   0 -11 475.748 244.902   2
   5   0 -12 2863.10 331.527   2
   5   0 -13 1744.48 289.901   2
   5   0 -14 1694.14 298.962   2
   5   0 -15 447.216 234.218   2
   5   0 -16 1360.32 457.441   2
   5   0 -17 609.258 441.647   2
   5   0 -18 1085.23 495.295   2
   5   0 -19 480.967 490.962   2
   5  -1  13 1612.95 645.057   2
   5  -1  12 4.37202 564.014   2
   5  -1  11 1857.64 596.374   2
   5  -1  10 661.190 521.361   2
   5  -1   9 5730.14 363.233   2
   5  -1   8-50.6743 208.816   2
   5  -1   7 3028.24 291.793   2
   5  -1   6 206.011 159.058   2
   5  -1   5 3211.04 216.829   2
   5  -1   4 1232.67 166.061   2
   5  -1   3 10729.4 304.074   2
   5  -1   2 168.352 91.7992   2
   5  -1   1 1469.35 102.946   2
   5  -1   0 1467.86 84.8698   2
   5  -1  -1 3308.05 175.591   2
   5  -1  -2 842.407 88.5158   2
   5  -1  -3 2373.33 394.034   2
   5  -1  -4 422.942 352.970   2
   5  -1  -5 887.255 209.420   2
   5  -1  -6 695.119 211.119   2
   5  -1  -7 2190.08 268.462   2
   5  -1  -8 3446.00 304.216   2
   5  -1  -9 2146.27 271.816   2
   5  -1 -10 1033.15 227.870   2
   5  -1 -11 2489.08 278.696   2
   5  -1 -12 343.773 235.822   2
   5  -1 -13 1797.47 305.087   2
   5  -1 -14 1641.67 288.594   2
   5  -1 -16 1191.94 430.316   2
   5  -1 -17 1474.64 485.019   2
   5  -1 -18 482.501 451.126   2
   5  -1 -19 882.534 510.234   2
   5  -2  13 244.821 568.764   2
   5  -2  12 854.980 585.539   2
   5  -2  11 9.56661 560.677   2
   5  -2  10 1834.59 605.820   2
   5  -2   9 270.797 512.767   2
   5  -2   8 1779.21 533.060   2
   5  -2   7 464.563 209.000   2
   5  -2   6 2162.26 265.377   2
   5  -2   5 737.374 216.841   2
   5  -2   4 309.842 136.032   2
   5  -2   3 2789.70 178.901   2
   5  -2   2 3406.72 129.163   2
   5  -2   1 10.6275 59.8906   2
   5  -2   0 1194.02 68.0009   2
   5  -2  -1 2148.28 114.715   2
   5  -2  -2 941.287 309.113   2
   5  -2  -3 1663.43 367.130   2
   5  -2  -4 7889.37 628.266   2
   5  -2  -5 185.997 175.216   2
   5  -2  -6 3552.84 298.698   2
   5  -2  -7 1458.09 234.421   2
   5  -2  -8 3645.91 301.212   2
   5  -2  -9 680.056 227.974   2
   5  -2 -10 4095.93 332.796   2
   5  -2 -11 493.877 221.280   2
   5  -2 -12 3468.93 319.564   2
   5  -2 -13 249.911 603.744   2
   5  -2 -14 1958.66 758.192   2
   5  -2 -16 1311.59 477.018   2
   5  -2 -17 1246.98 489.124   2
   5  -2 -18 1208.87 519.720   2
   5  -3  14 126.894 611.252   2
   5  -3  13 1554.58 635.876   2
   5  -3  12 406.225 557.816   2
   5  -3  11 935.689 518.622   2
   5  -3  10 276.882 505.824   2
   5  -3   9 4392.62 648.476   2
   5  -3   8 787.909 484.008   2
   5  -3   7 3484.36 551.174   2
   5  -3   6 52.4935 424.713   2
   5  -3   5 2641.23 174.426   2
   5  -3   4 373.272 121.679   2
   5  -3   3 2210.29 176.427   2
   5  -3   2 1420.49 130.029   2
   5  -3   1 5020.64 113.836   2
   5  -3   0 765.217 57.9369   2
   5  -3  -1 6485.70 157.132   2
   5  -3  -2 734.309 300.420   2
   5  -3  -3 781.344 324.834   2
   5  -3  -4 4161.86 487.614   2
   5  -3  -5 2516.76 257.715   2
   5  -3  -6 615.560 200.043   2
   5  -3  -7 1049.63 217.991   2
   5  -3  -8 1389.38 247.604   2
   5  -3  -9 2072.01 582.798   2
   5  -3 -10 2950.49 621.648   2
   5  -3 -11 2669.09 628.054   2
   5  -3 -12 947.015 602.218   2
   5  -3 -13 1722.69 673.265   2
   5  -3 -14 1179.63 734.936   2
   5  -3 -15 2828.16 772.615   2
   5  -3 -16 171.837 384.128   2
   5  -3 -17 2021.64 541.903   2
   5  -3 -18 1267.25 542.465   2
   5  -4  14 952.476 620.375   2
   5  -4  13-14.9556 553.789   2
   5  -4  12 2901.73 696.590   2
   5  -4  11 169.475 528.841   2
   5  -4  10 1339.66 526.518   2
   5  -4   9 849.437 464.724   2
   5  -4   8 2249.39 541.563   2
   5  -4   7 307.420 420.608   2
   5  -4   6 5247.77 243.493   2
   5  -4   5 86.8715 134.415   2
   5  -4   4 2340.64 214.012   2
   5  -4   3 2164.06 223.458   2
   5  -4   2 4402.11 334.249   2
   5  -4   1 249.731 87.6713   2
   5  -4   0 1574.72 103.920   2
   5  -4  -1 1319.49 68.4766   2
   5  -4  -2 3108.43 135.653   2
   5  -4  -3 166.522 109.596   2
   5  -4  -4 2627.72 192.330   2
   5  -4  -5 743.796 363.238   2
   5  -4  -6 3176.64 514.723   2
   5  -4  -7 1969.05 508.087   2
   5  -4  -8 5211.42 695.975   2
   5  -4  -9-75.0876 498.537   2
   5  -4 -10 1675.56 583.739   2
   5  -4 -11 12.4614 494.079   2
   5  -4 -12 3907.46 742.677   2
   5  -4 -13 268.116 615.254   2
   5  -4 -14 1874.79 732.174   2
   5  -4 -15 284.987 358.593   2
   5  -4 -16 1041.85 381.108   2
   5  -4 -17 1143.75 424.652   2
   5  -5  14-15.6188 599.057   2
   5  -5  13 1624.90 653.778   2
   5  -5  12-59.1846 556.482   2
   5  -5  11 1894.64 598.376   2
   5  -5  10 208.241 505.763   2
   5  -5   9 2551.34 583.162   2
   5  -5   8 71.4047 445.164   2
   5  -5   7 1317.28 171.383   2
   5  -5   6 142.831 145.284   2
   5  -5   5 5047.13 274.561   2
   5  -5   4 22.2903 149.217   2
   5  -5   3 2405.21 263.996   2
   5  -5   2 1131.36 239.302   2
   5  -5   1 606.484 229.732   2
   5  -5   0 605.949 123.910   2
   5  -5  -1 4194.79 179.430   2
   5  -5  -2 1613.29 112.497   2
   5  -5  -3 2010.78 90.2938   2
   5  -5  -4 2022.28 174.563   2
   5  -5  -5 5727.05 589.695   2
   5  -5  -6 851.702 398.500   2
   5  -5  -7 1638.62 168.295   2
   5  -5  -8 2546.21 563.547   2
   5  -5  -9 3766.28 652.787   2
   5  -5 -10 745.557 516.015   2
   5  -5 -11 4277.91 722.275   2
   5  -5 -12 1231.23 619.003   2
   5  -5 -13 2290.08 754.959   2
   5  -5 -14 1650.50 698.105   2
   5  -5 -15 1629.02 416.040   2
   5  -5 -16 341.803 377.060   2
   5  -5 -17 2094.25 468.306   2
   5  -6  14 995.286 657.618   2
   5  -6  13 276.484 564.480   2
   5  -6  12 2372.41 697.027   2
   5  -6  11 224.349 523.381   2
   5  -6  10 1686.17 556.121   2
   5  -6   9 281.043 475.322   2
   5  -6   8 3674.15 256.423   2
   5  -6   7 484.068 165.232   2
   5  -6   6 2364.13 221.078   2
   5  -6   5 78.6339 154.229   2
   5  -6   4 1464.58 224.643   2
   5  -6   3 512.665 203.538   2
   5  -6   2 3291.81 311.391   2
   5  -6   1 361.277 132.188   2
   5  -6   0 1302.30 150.050   2
   5  -6  -1 86.4725 102.851   2
   5  -6  -2 3413.45 181.258   2
   5  -6  -3 449.092 116.279   2
   5  -6  -4 2089.75 156.745   2
   5  -6  -5 997.561 134.259   2
   5  -6  -6 2724.23 191.198   2
   5  -6  -7 94.7948 142.894   2
   5  -6  -8 2078.98 218.295   2
   5  -6  -9 1266.74 207.936   2
   5  -6 -10 2091.33 253.282   2
   5  -6 -11 542.547 551.641   2
   5  -6 -12 2439.59 681.227   2
   5  -6 -13-144.739 624.187   2
   5  -6 -14 1262.89 386.191   2
   5  -6 -15 1393.76 392.578   2
   5  -6 -16 1528.16 435.689   2
   5  -7  14 17.0534 593.551   2
   5  -7  13 533.575 572.531   2
   5  -7  12 242.144 577.874   2
   5  -7  11 1425.18 579.715   2
   5  -7  10 155.050 472.703   2
   5  -7   9 2561.74 581.988   2
   5  -7   8 114.719 174.923   2
   5  -7   7 1470.75 216.017   2
   5  -7   6 204.129 171.633   2
   5  -7   5 4332.67 338.330   2
   5  -7   4 282.668 191.683   2
   5  -7   3 1132.68 232.866   2
   5  -7   2 744.262 158.968   2
   5  -7   1 5674.26 264.708   2
   5  -7   0 492.011 137.801   2
   5  -7  -1 2880.19 200.380   2
   5  -7  -2 935.959 148.011   2
   5  -7  -3 3033.63 193.769   2
   5  -7  -4 1546.88 167.764   2
   5  -7  -5 3285.28 217.335   2
   5  -7  -6 1035.19 163.965   2
   5  -7  -7 2319.24 211.671   2
   5  -7  -8 836.702 187.582   2
   5  -7  -9 2583.24 263.067   2
   5  -7 -10 810.847 226.407   2
   5  -7 -11 4014.96 341.975   2
   5  -7 -12 474.825 246.090   2
   5  -7 -13 2710.26 750.773   2
   5  -7 -14 385.094 342.495   2
   5  -7 -15 858.879 381.170   2
   5  -7 -16 475.717 400.760   2
   5  -8  14 1354.19 624.159   2
   5  -8  13 27.8531 561.618   2
   5  -8  12 2413.08 664.349   2
   5  -8  11 92.7027 528.141   2
   5  -8  10 795.949 526.563   2
   5  -8   9 335.767 193.590   2
   5  -8   8 2093.54 259.245   2
   5  -8   7 26.1795 195.646   2
   5  -8   6 1746.94 279.248   2
   5  -8   5 547.983 228.789   2
   5  -8   4 4916.45 406.900   2
   5  -8   3 284.694 161.126   2
   5  -8   2 2823.77 230.730   2
   5  -8   1 65.2164 145.736   2
   5  -8   0 574.672 152.853   2
   5  -8  -1 801.271 165.765   2
   5  -8  -2 4588.71 252.623   2
   5  -8  -3 55.1548 139.776   2
   5  -8  -4 1854.79 201.848   2
   5  -8  -5 188.827 148.171   2
   5  -8  -6 2625.24 241.270   2
   5  -8  -7 27.8416 175.027   2
   5  -8  -8 2718.35 266.162   2
   5  -8  -9 936.383 236.809   2
   5  -8 -10 2338.33 294.535   2
   5  -8 -11 657.467 251.848   2
   5  -8 -12 2757.72 347.318   2
   5  -8 -13 52.8943 233.909   2
   5  -8 -14 1870.18 408.906   2
   5  -8 -15 168.721 410.066   2
   5  -9  13 94.9127 595.794   2
   5  -9  12 322.334 573.591   2
   5  -9  11 1915.81 626.681   2
   5  -9  10 81.9367 221.620   2
   5  -9   9 949.389 246.676   2
   5  -9   8 193.616 224.021   2
   5  -9   7 1124.54 255.202   2
   5  -9   6 824.830 268.307   2
   5  -9   5 2087.62 326.471   2
   5  -9   4 376.903 175.404   2
   5  -9   3 1049.48 199.800   2
   5  -9   2 206.360 174.467   2
   5  -9   1 701.044 171.033   2
   5  -9   0 1215.27 191.363   2
   5  -9  -1 754.225 176.095   2
   5  -9  -2 1137.52 188.443   2
   5  -9  -3 3606.85 260.214   2
   5  -9  -4 273.842 166.365   2
   5  -9  -5 2166.24 231.050   2
   5  -9  -6 541.911 185.005   2
   5  -9  -7 1799.24 246.807   2
   5  -9  -8 186.884 204.299   2
   5  -9  -9 2527.40 294.643   2
   5  -9 -10 327.528 223.458   2
   5  -9 -11 2490.41 332.513   2
   5  -9 -12 246.261 229.161   2
   5  -9 -13 1402.99 361.612   2
   5  -9 -14 146.075 390.820   2
   5 -10  13 113.449 579.761   2
   5 -10  12 727.315 616.951   2
   5 -10  11 555.680 527.366   2
   5 -10  10 1596.23 317.912   2
   5 -10   9 742.984 290.042   2
   5 -10   8 3270.94 406.577   2
   5 -10   7-40.5408 278.672   2
   5 -10   6 641.274 277.076   2
   5 -10   5 398.164 189.653   2
   5 -10   4 1598.45 236.500   2
   5 -10   3 1459.85 225.620   2
   5 -10   2 2181.49 241.914   2
   5 -10   1 400.314 182.462   2
   5 -10   0 4987.54 310.435   2
   5 -10  -1 11.5206 179.742   2
   5 -10  -2 1612.84 225.630   2
   5 -10  -3 488.568 197.372   2
   5 -10  -4 3291.93 276.155   2
   5 -10  -5 136.591 192.173   2
   5 -10  -6 4676.92 338.881   2
   5 -10  -7 78.0701 211.308   2
   5 -10  -8 1120.14 244.575   2
   5 -10  -9 138.939 247.991   2
   5 -10 -10 2674.59 336.621   2
   5 -10 -11 656.520 231.376   2
   5 -10 -12 1376.30 262.684   2
   5 -10 -13 432.391 710.749   2
   5 -11  11 1659.70 350.948   2
   5 -11  10 115.965 299.279   2
   5 -11   9 699.060 303.224   2
   5 -11   8 56.0069 279.314   2
   5 -11   7 1349.90 272.012   2
   5 -11   6 443.281 220.890   2
   5 -11   5 2270.72 279.808   2
   5 -11   4 634.599 215.088   2
   5 -11   3 1323.40 239.335   2
   5 -11   2 168.592 195.119   2
   5 -11   1 3281.10 288.084   2
   5 -11   0 81.4832 193.855   2
   5 -11  -1 660.235 207.519   2
   5 -11  -2 234.136 205.104   2
   5 -11  -3 1440.57 242.575   2
   5 -11  -4 426.817 213.741   2
   5 -11  -5 2288.74 284.800   2
   5 -11  -6 107.924 220.584   2
   5 -11  -7 1371.26 255.711   2
   5 -11  -8 132.787 227.535   2
   5 -11  -9 791.798 282.185   2
   5 -11 -10-96.9694 266.042   2
   5 -11 -11 2161.57 376.335   2
   5 -12  11 395.243 294.995   2
   5 -12  10 1660.08 366.609   2
   5 -12   9 470.847 355.164   2
   5 -12   8 891.960 260.653   2
   5 -12   7 55.8603 236.272   2
   5 -12   6 934.821 252.383   2
   5 -12   5 204.164 220.241   2
   5 -12   4 1785.81 267.937   2
   5 -12   3 481.713 232.200   2
   5 -12   2 351.810 224.300   2
   5 -12   1 334.825 218.555   2
   5 -12   0 1227.33 245.384   2
   5 -12  -1 113.903 211.431   2
   5 -12  -2 2246.01 293.075   2
   5 -12  -3 80.0554 228.594   2
   5 -12  -4 2065.07 301.496   2
   5 -12  -5 122.659 246.304   2
   5 -12  -6 2728.38 338.611   2
   5 -12  -7 72.9524 259.338   2
   5 -12  -8 2308.25 337.399   2
   5 -12  -9 419.472 289.368   2
   5 -12 -10 1171.15 335.954   2
   5 -13  10 139.447 273.151   2
   5 -13   9 815.959 350.232   2
   5 -13   8-115.215 256.333   2
   5 -13   7 1147.34 292.734   2
   5 -13   6 411.682 259.055   2
   5 -13   5 590.352 253.920   2
   5 -13   4 104.411 239.251   2
   5 -13   3 1744.27 291.342   2
   5 -13   2 113.434 237.525   2
   5 -13   1 615.882 246.412   2
   5 -13   0 297.198 240.681   2
   5 -13  -1 1119.35 263.975   2
   5 -13  -2 264.564 239.047   2
   5 -13  -3 1497.70 307.893   2
   5 -13  -4 97.2541 239.943   2
   5 -13  -5 992.435 289.277   2
   5 -13  -6 50.9491 264.808   2
   5 -13  -7 1777.59 336.791   2
   5 -13  -8-38.7553 281.862   2
   5 -14   9 704.473 284.552   2
   5 -14   8 765.651 425.425   2
   5 -14   7 223.398 281.600   2
   5 -14   6 411.417 270.112   2
   5 -14   5 245.405 263.227   2
   5 -14   4 1466.84 302.378   2
   5 -14   3 379.891 269.249   2
   5 -14   2 1680.44 321.157   2
   5 -14   1 235.205 269.363   2
   5 -14   0 2697.19 344.511   2
   5 -14  -1 134.948 258.151   2
   5 -14  -2 1657.33 317.119   2
   5 -14  -3 224.193 273.523   2
   5 -14  -4 2238.61 349.768   2
   5 -14  -5 179.794 281.065   2
   5 -14  -6 2030.86 360.597   2
   5 -15   6 115.438 297.389   2
   5 -15   5 942.881 318.069   2
   5 -15   4 230.877 286.247   2
   5 -15   3 869.953 315.908   2
   5 -15   2 161.763 295.119   2
   5 -15   1 698.116 315.335   2
   5 -15   0 300.615 283.908   2
   5 -15  -1 600.774 290.136   2
   5 -15  -2 10.2574 298.405   2
   4  12  -4 1588.61 456.613   2
   4  12  -5 62.8441 433.999   2
   4  12  -6 1852.18 529.119   2
   4  12  -7-12.3055 447.402   2
   4  12  -8 1978.34 492.551   2
   4  12  -9-33.1699 391.006   2
   4  11   0 217.765 277.255   2
   4  11  -1 1459.36 422.048   2
   4  11  -2 223.630 350.244   2
   4  11  -3 2604.84 462.014   2
   4  11  -4 347.434 401.220   2
   4  11  -5 1979.21 458.327   2
   4  11  -6 148.737 408.086   2
   4  11  -7 2237.96 476.256   2
   4  11 -13 1595.61 453.618   2
   4  10   3 192.776 276.224   2
   4  10   2 2282.62 340.412   2
   4  10   1 112.652 261.122   2
   4  10   0 1784.15 311.748   2
   4  10  -1 663.236 356.089   2
   4  10  -2 4245.39 492.716   2
   4  10  -3 66.3436 329.627   2
   4  10  -4 2584.95 429.916   2
   4  10  -5 588.912 385.061   2
   4  10  -6 3993.23 524.223   2
   4  10  -7 52.5366 375.452   2
   4  10  -8 1863.15 444.128   2
   4   9   5 1233.15 238.961   2
   4   9   4 506.690 202.965   2
   4   9   3 1730.48 248.487   2
   4   9   2-25.1432 251.554   2
   4   9   1 2400.39 306.534   2
   4   9   0 349.764 305.050   2
   4   9  -1 2595.92 395.800   2
   4   9  -2 178.509 286.682   2
   4   9  -3 2707.63 408.846   2
   4   9  -4 115.335 318.425   2
   4   9  -5 2286.99 418.417   2
   4   9  -6 136.969 347.439   2
   4   9  -7 4926.46 518.168   2
   4   9 -11 1011.43 311.679   2
   4   9 -12 434.349 304.720   2
   4   9 -13 1422.73 349.016   2
   4   9 -14-25.8166 314.756   2
   4   9 -15 1414.17 292.116   2
   4   9 -16-132.798 265.069   2
   4   8   7 314.401 241.087   2
   4   8   6 1372.39 202.935   2
   4   8   5-25.2687 179.837   2
   4   8   4 2445.62 248.551   2
   4   8   3 630.446 199.907   2
   4   8   2 3413.32 326.354   2
   4   8   1 363.543 221.329   2
   4   8   0 5174.76 449.847   2
   4   8  -1 417.407 250.410   2
   4   8  -2 2296.39 333.642   2
   4   8  -3 122.177 249.469   2
   4   8  -4 6055.52 479.682   2
   4   8  -5 451.208 287.310   2
   4   8  -6 5006.19 482.575   2
   4   8  -7 91.6335 307.539   2
   4   8 -12 1141.43 344.154   2
   4   8 -13 606.661 230.526   2
   4   8 -14 1260.63 261.598   2
   4   8 -15 161.720 247.172   2
   4   8 -16 1165.70 276.262   2
   4   8 -17-171.076 373.471   2
   4   7   8 205.149 239.266   2
   4   7   7 2071.13 220.190   2
   4   7   6 213.100 163.759   2
   4   7   5 1881.51 202.106   2
   4   7   4 113.889 153.663   2
   4   7   3 2018.05 187.945   2
   4   7   2 145.112 140.096   2
   4   7   1 2383.10 214.320   2
   4   7   0 292.310 176.771   2
   4   7  -1 2323.07 215.213   2
   4   7  -2 960.602 261.980   2
   4   7  -3 7831.98 473.192   2
   4   7  -4 81.0387 244.353   2
   4   7  -5 3101.46 380.943   2
   4   7  -6 111.667 261.804   2
   4   7  -7 3385.70 371.529   2
   4   7  -8 53.4823 264.712   2
   4   7  -9 6549.87 481.214   2
   4   7 -12 695.155 312.642   2
   4   7 -13 1521.15 265.590   2
   4   7 -14 782.302 251.333   2
   4   7 -15 1702.12 309.133   2
   4   7 -16 289.835 234.888   2
   4   7 -17 396.253 426.507   2
   4   7 -18 387.304 404.584   2
   4   6   9-73.5695 310.067   2
   4   6   8 1221.19 333.553   2
   4   6   7 428.259 197.946   2
   4   6   6 2101.57 204.232   2
   4   6   5 6.78707 143.542   2
   4   6   4 2700.05 196.943   2
   4   6   3 264.582 137.593   2
   4   6   2 6414.86 246.981   2
   4   6   1 198.632 135.146   2
   4   6   0 5337.75 240.610   2
   4   6  -1 83.8929 146.500   2
   4   6  -2 5642.47 256.018   2
   4   6  -3 311.922 217.822   2
   4   6  -4 4739.92 377.068   2
   4   6  -5 559.097 256.784   2
   4   6  -6 8517.09 483.065   2
   4   6  -7 716.072 273.688   2
   4   6  -8 5730.77 426.234   2
   4   6  -9 363.638 302.188   2
   4   6 -10 4590.59 478.997   2
   4   6 -11 194.119 294.310   2
   4   6 -12 1444.68 337.890   2
   4   6 -13 154.557 210.733   2
   4   6 -14 2212.92 287.687   2
   4   6 -15 97.3713 223.207   2
   4   6 -16 1496.06 282.718   2
   4   6 -17 228.484 370.339   2
   4   6 -18 184.210 427.181   2
   4   5  10-10.8274 340.871   2
   4   5   9 722.527 322.257   2
   4   5   8 130.672 296.417   2
   4   5   7 1908.38 225.987   2
   4   5   6 783.596 186.743   2
   4   5   5 2436.15 225.645   2
   4   5   4 564.869 140.977   2
   4   5   3 3548.51 196.940   2
   4   5   2 1570.32 155.709   2
   4   5   1 5248.29 238.018   2
   4   5   0 480.833 131.690   2
   4   5  -1 4981.27 213.817   2
   4   5  -2 1255.91 146.017   2
   4   5  -3 5808.74 278.089   2
   4   5  -4 3486.85 237.813   2
   4   5  -5 9794.10 357.347   2
   4   5  -6 602.857 176.460   2
   4   5  -7 6436.57 305.233   2
   4   5  -8 84.0131 164.777   2
   4   5  -9 5662.06 312.256   2
   4   5 -10 206.191 183.861   2
   4   5 -11 5447.10 474.309   2
   4   5 -12 401.675 291.600   2
   4   5 -13 2458.06 381.441   2
   4   5 -14 146.748 205.901   2
   4   5 -15 1647.76 279.341   2
   4   5 -16 193.956 222.168   2
   4   5 -17 1449.20 437.422   2
   4   5 -18 103.840 393.941   2
   4   5 -19 155.405 443.399   2
   4   4  11 543.837 332.822   2
   4   4  10 1980.02 370.722   2
   4   4   9 220.307 292.180   2
   4   4   8 2141.49 231.011   2
   4   4   7 1124.47 197.362   2
   4   4   6 2952.10 234.773   2
   4   4   5-46.3240 151.742   2
   4   4   4 5122.58 263.029   2
   4   4   3 598.638 164.321   2
   4   4   2 2299.46 158.599   2
   4   4   1 448.727 122.939   2
   4   4   0 10703.6 281.241   2
   4   4  -1 88.9372 112.258   2
   4   4  -2 5717.18 248.582   2
   4   4  -3 1501.21 170.120   2
   4   4  -4 4946.22 311.362   2
   4   4  -5 803.202 158.222   2
   4   4  -6 5519.81 264.975   2
   4   4  -7 226.725 146.410   2
   4   4  -8 6076.89 287.848   2
   4   4  -9 1499.31 190.010   2
   4   4 -10 5361.22 465.372   2
   4   4 -11 543.660 273.552   2
   4   4 -12 2062.86 348.466   2
   4   4 -13 610.227 269.048   2
   4   4 -14 1785.52 332.031   2
   4   4 -15 188.906 193.411   2
   4   4 -16 960.675 406.104   2
   4   4 -17 796.742 412.501   2
   4   4 -18 907.071 420.146   2
   4   4 -19 162.795 443.174   2
   4   3  12 332.203 525.987   2
   4   3  11 1105.21 338.945   2
   4   3  10 176.832 285.481   2
   4   3   9 2166.82 344.888   2
   4   3   8 264.992 177.155   2
   4   3   7 2489.98 227.055   2
   4   3   6 3495.76 237.506   2
   4   3   5 3193.01 222.511   2
   4   3   4 525.115 149.400   2
   4   3   3 5950.86 258.521   2
   4   3   2 377.393 88.8000   2
   4   3   1 7016.21 175.600   2
   4   3   0 3321.16 135.912   2
   4   3  -1 9749.44 242.774   2
   4   3  -2 473.764 129.576   2
   4   3  -3 13071.0 394.360   2
   4   3  -4 326.874 142.442   2
   4   3  -5 12792.2 390.516   2
   4   3  -6 2434.75 177.530   2
   4   3  -7 10265.3 316.228   2
   4   3  -8 1761.26 288.120   2
   4   3  -9 7044.30 472.515   2
   4   3 -10 366.782 258.419   2
   4   3 -11 8633.32 527.076   2
   4   3 -12 934.814 279.308   2
   4   3 -13 2919.15 352.242   2
   4   3 -14 2285.81 317.892   2
   4   3 -15 1570.25 238.581   2
   4   3 -16 123.821 358.080   2
   4   3 -17 986.815 407.823   2
   4   3 -18-226.827 395.814   2
   4   3 -19-125.903 433.424   2
   4   2  13 533.797 573.912   2
   4   2  12 768.081 597.449   2
   4   2  11 320.045 495.216   2
   4   2  10 2468.16 358.057   2
   4   2   9 813.499 181.927   2
   4   2   8 3528.54 243.932   2
   4   2   7 145.072 158.193   2
   4   2   6 3000.01 217.100   2
   4   2   5 3021.59 213.130   2
   4   2   4 5336.95 242.127   2
   4   2   3-7.67667 128.139   2
   4   2   2 10240.0 301.863   2
   4   2   1 115.656 154.081   2
   4   2   0 3659.19 158.271   2
   4   2  -1 2280.20 113.216   2
   4   2  -2 11300.8 286.322   2
   4   2  -3 1050.37 128.995   2
   4   2  -4 5025.24 202.283   2
   4   2  -5 464.353 114.268   2
   4   2  -6 5227.12 402.174   2
   4   2  -7 712.620 260.204   2
   4   2  -8 8235.32 486.895   2
   4   2  -9 592.707 250.040   2
   4   2 -10 5158.30 396.358   2
   4   2 -11-54.3173 220.941   2
   4   2 -12 3235.12 342.691   2
   4   2 -13 75.3049 207.054   2
   4   2 -14 2857.74 311.690   2
   4   2 -15 354.097 192.337   2
   4   2 -16 1357.49 401.513   2
   4   2 -17-0.95701 382.143   2
   4   2 -18 1231.54 490.358   2
   4   2 -19 59.6797 406.723   2
   4   1  14-76.3651 577.778   2
   4   1  13 1111.71 604.081   2
   4   1  12 739.092 565.955   2
   4   1  11 162.008 477.205   2
   4   1  10 77.9693 423.752   2
   4   1   9 2122.48 208.717   2
   4   1   8 359.740 153.459   2
   4   1   7 4734.22 247.581   2
   4   1   6 3681.13 224.398   2
   4   1   5 3092.28 202.021   2
   4   1   4 942.757 149.734   2
   4   1   3 5673.60 231.481   2
   4   1   2 2464.96 173.407   2
   4   1   1 9901.07 360.752   2
   4   1   0 141.318 76.5268   2
   4   1  -1 14839.9 217.955   2
   4   1  -2 2983.00 196.663   2
   4   1  -3 11981.9 330.999   2
   4   1 -10 831.049 235.765   2
   4   1 -11 4488.06 352.821   2
   4   1 -12 989.306 234.164   2
   4   1 -15 945.799 369.734   2
   4   1 -16 172.199 335.798   2
   4   1 -17 782.145 398.842   2
   4   1 -18 92.4441 432.498   2
   4   1 -19 555.942 434.115   2
   4   0  14 1013.23 579.780   2
   4   0  13 135.751 557.902   2
   4   0  12 1370.28 557.701   2
   4   0  11 419.354 490.482   2
   4   0  10 829.919 512.063   2
   4   0   9 1669.40 500.643   2
   4   0   8 6747.96 344.463   2
   4   0   7 259.363 142.404   2
   4   0   6 5361.76 240.853   2
   4   0   5 1620.28 162.336   2
   4   0   4 3032.00 187.103   2
   4   0   3 440.496 123.768   2
   4   0   2 6589.73 225.678   2
   4   0   1 321.062 76.1889   2
   4   0   0 14283.2 211.073   2
   4   0  -1 2023.57 155.565   2
   4   0  -2 7505.10 224.724   2
   4   0 -15 546.146 358.595   2
   4   0 -16 1428.87 448.303   2
   4   0 -17 89.6082 376.250   2
   4   0 -18 1530.24 464.658   2
   4   0 -19-145.419 321.981   2
   4  -1  15 787.786 593.414   2
   4  -1  14 94.3372 553.680   2
   4  -1  13 1751.78 618.692   2
   4  -1  12 1849.09 559.591   2
   4  -1  11 2038.51 576.918   2
   4  -1  10 149.004 457.705   2
   4  -1   9 1334.92 476.917   2
   4  -1   8 578.206 187.281   2
   4  -1   7 5610.79 310.165   2
   4  -1   6 1552.10 165.520   2
   4  -1   5 7470.27 260.867   2
   4  -1   4 3561.77 189.201   2
   4  -1   3 8154.81 243.177   2
   4  -1   2 795.749 88.6127   2
   4  -1   1 11979.9 160.739   2
   4  -1   0 1606.57 85.3973   2
   4  -1  -1 11446.8 248.232   2
   4  -1  -2 10659.6 561.877   2
   4  -1  -3 16996.8 738.347   2
   4  -1  -4 1422.52 354.872   2
   4  -1  -5 12575.4 748.679   2
   4  -1  -6 4671.59 540.884   2
   4  -1  -7 9955.70 750.050   2
   4  -1  -8 5953.01 655.232   2
   4  -1  -9 7142.78 737.596   2
   4  -1 -10 223.016 522.122   2
   4  -1 -11 6513.78 789.712   2
   4  -1 -12 1499.28 624.068   2
   4  -1 -14 631.069 364.442   2
   4  -1 -15 2455.51 446.289   2
   4  -1 -16 252.245 358.628   2
   4  -1 -17 856.585 435.116   2
   4  -1 -18 309.247 456.113   2
   4  -1 -19 795.830 470.152   2
   4  -2  15 1001.49 629.314   2
   4  -2  14 799.322 555.594   2
   4  -2  13 47.7916 514.789   2
   4  -2  12 1179.48 561.235   2
   4  -2  11 959.366 514.236   2
   4  -2  10 810.776 483.218   2
   4  -2   9 1302.03 497.169   2
   4  -2   8 1195.64 449.452   2
   4  -2   7 361.762 418.260   2
   4  -2   6 8449.65 426.476   2
   4  -2   5 4934.11 289.180   2
   4  -2   4 2125.57 105.543   2
   4  -2   3 53.9968 75.9402   2
   4  -2   2 3688.46 114.765   2
   4  -2   1 239.009 57.9316   2
   4  -2   0 10214.2 168.140   2
   4  -2  -1 351.005 47.1309   2
   4  -2  -2 10694.4 564.094   2
   4  -2  -3 1056.24 313.807   2
   4  -2  -4 8998.01 602.025   2
   4  -2  -5 282.644 325.365   2
   4  -2  -6 5510.19 567.745   2
   4  -2  -7 232.960 395.546   2
   4  -2  -8 6925.42 692.430   2
   4  -2  -9 5905.11 727.472   2
   4  -2 -10 8660.75 825.386   2
   4  -2 -11 638.058 552.445   2
   4  -2 -12 5954.30 836.187   2
   4  -2 -13-72.4759 577.107   2
   4  -2 -14 1903.12 357.334   2
   4  -2 -15 467.173 327.617   2
   4  -2 -16 2004.83 476.470   2
   4  -2 -17 133.338 441.111   2
   4  -2 -18 1386.06 347.040   2
   4  -2 -19 359.624 465.848   2
   4  -3  15 403.365 556.799   2
   4  -3  14 244.314 527.797   2
   4  -3  13 1316.65 561.009   2
   4  -3  12 768.289 504.008   2
   4  -3  11 2034.71 562.549   2
   4  -3  10 1966.17 512.401   2
   4  -3   9 3598.31 559.240   2
   4  -3   8 3543.26 160.878   2
   4  -3   7 6613.03 204.194   2
   4  -3   6 1429.21 121.262   2
   4  -3   5 11441.0 276.224   2
   4  -3   4 8324.97 255.093   2
   4  -3   3 8120.47 272.904   2
   4  -3   2 6749.08 158.894   2
   4  -3   1 10251.0 205.181   2
   4  -3   0 675.072 75.3295   2
   4  -3  -1 22186.7 225.225   2
   4  -3  -2 7141.52 463.810   2
   4  -3  -3 5894.31 465.740   2
   4  -3  -4 2153.94 387.969   2
   4  -3  -5 7130.00 561.930   2
   4  -3  -6 1193.10 384.859   2
   4  -3  -7 6512.60 633.423   2
   4  -3  -8 682.566 445.995   2
   4  -3  -9 7072.97 751.893   2
   4  -3 -10 278.926 485.365   2
   4  -3 -11 2366.67 655.734   2
   4  -3 -12 1529.41 624.854   2
   4  -3 -13 1019.29 620.628   2
   4  -3 -14 191.289 310.484   2
   4  -3 -15 1253.93 334.737   2
   4  -3 -16 810.496 357.728   2
   4  -3 -17 879.575 463.107   2
   4  -3 -18 89.4593 352.896   2
   4  -4  16 408.192 570.662   2
   4  -4  15 724.089 557.108   2
   4  -4  14 127.209 561.777   2
   4  -4  13 97.7416 490.359   2
   4  -4  12 1215.89 539.875   2
   4  -4  11 1504.26 532.420   2
   4  -4  10 1415.26 492.625   2
   4  -4   9 1023.32 138.017   2
   4  -4   8 1456.50 155.672   2
   4  -4   7 1597.96 152.429   2
   4  -4   6 3893.51 207.979   2
   4  -4   5 340.463 121.914   2
   4  -4   4 6925.28 261.227   2
   4  -4   3 1050.24 149.055   2
   4  -4   2 1028.68 182.802   2
   4  -4   1 3001.40 173.218   2
   4  -4   0 7778.42 243.025   2
   4  -4  -1 190.677 69.1868   2
   4  -4  -2 11715.6 167.392   2
   4  -4  -3 3194.38 108.437   2
   4  -4  -4 8483.15 176.793   2
   4  -4  -5 490.181 100.108   2
   4  -4  -6 6374.86 242.223   2
   4  -4  -7 776.273 146.333   2
   4  -4  -8 6864.08 304.594   2
   4  -4  -9 1033.90 508.218   2
   4  -4 -10 5850.27 739.038   2
   4  -4 -11 513.793 493.698   2
   4  -4 -12 4847.53 746.138   2
   4  -4 -13 443.677 293.416   2
   4  -4 -14 1208.45 337.001   2
   4  -4 -15 67.2871 324.712   2
   4  -4 -16 1412.75 411.283   2
   4  -4 -17 322.723 299.681   2
   4  -4 -18 805.376 329.294   2
   4  -5  16-63.1389 592.572   2
   4  -5  15 1428.51 614.972   2
   4  -5  14 1023.89 561.072   2
   4  -5  13 1000.59 544.189   2
   4  -5  12 387.723 465.289   2
   4  -5  11 3403.26 597.487   2
   4  -5  10 718.836 170.837   2
   4  -5   9 4217.30 247.141   2
   4  -5   8 3063.36 218.157   2
   4  -5   7 2634.51 203.125   2
   4  -5   6 1319.14 169.188   2
   4  -5   5 8006.49 300.249   2
   4  -5   4 6586.74 279.303   2
   4  -5   3 14226.7 461.300   2
   4  -5   2 1633.70 213.795   2
   4  -5   1 7412.62 373.112   2
   4  -5   0 5881.99 217.813   2
   4  -5  -1 8493.85 243.124   2
   4  -5  -2 3450.38 166.116   2
   4  -5  -3 17736.5 257.675   2
   4  -5  -4 1240.74 108.790   2
   4  -5  -5 5128.29 220.794   2
   4  -5  -6 1809.71 175.237   2
   4  -5  -7 3334.56 224.490   2
   4  -5  -8 104.634 154.819   2
   4  -5  -9 4588.72 300.103   2
   4  -5 -10 2192.17 257.200   2
   4  -5 -11 4860.52 352.158   2
   4  -5 -12 330.689 544.631   2
   4  -5 -13 1539.52 332.573   2
   4  -5 -14 311.840 316.005   2
   4  -5 -15 884.115 366.489   2
   4  -5 -16 268.129 279.577   2
   4  -5 -17 832.798 312.851   2
   4  -6  16 556.941 621.557   2
   4  -6  15 359.674 547.343   2
   4  -6  14 535.670 554.577   2
   4  -6  13 879.999 548.199   2
   4  -6  12 1094.42 521.583   2
   4  -6  11 991.742 199.106   2
   4  -6  10 1153.95 212.086   2
   4  -6   9 249.169 156.752   2
   4  -6   8 1958.36 211.259   2
   4  -6   7 2170.12 211.396   2
   4  -6   6 3306.36 240.273   2
   4  -6   5 785.995 171.552   2
   4  -6   4 5965.95 349.148   2
   4  -6   3 1615.60 227.618   2
   4  -6   2 4026.73 308.603   2
   4  -6   1 1006.93 145.974   2
   4  -6   0 3372.28 194.757   2
   4  -6  -1 515.846 127.601   2
   4  -6  -2 8990.89 282.537   2
   4  -6  -3 3538.62 198.009   2
   4  -6  -4 6037.24 253.293   2
   4  -6  -5 601.428 142.259   2
   4  -6  -6 6068.37 281.740   2
   4  -6  -7 997.956 180.840   2
   4  -6  -8 3483.79 259.878   2
   4  -6  -9 2061.63 249.952   2
   4  -6 -10 4564.34 330.797   2
   4  -6 -11 41.7455 228.238   2
   4  -6 -12 3052.51 270.361   2
   4  -6 -13 649.617 214.151   2
   4  -6 -14 643.877 327.552   2
   4  -6 -15-14.7082 267.438   2
   4  -6 -16 748.672 308.438   2
   4  -6 -17 1.51663 419.934   2
   4  -7  16 313.673 562.083   2
   4  -7  15 863.719 595.003   2
   4  -7  14 1079.80 588.257   2
   4  -7  13 1202.00 558.760   2
   4  -7  12 675.692 518.718   2
   4  -7  11 1597.58 237.522   2
   4  -7  10 4076.48 290.936   2
   4  -7   9 2569.25 248.366   2
   4  -7   8 2705.75 247.694   2
   4  -7   7 5183.04 303.974   2
   4  -7   6 2384.38 229.973   2
   4  -7   5 5294.34 353.761   2
   4  -7   4 6071.80 371.061   2
   4  -7   3 6152.58 384.961   2
   4  -7   2 4740.65 249.076   2
   4  -7   1 8925.82 311.596   2
   4  -7   0 3050.96 208.328   2
   4  -7  -1 10870.9 335.059   2
   4  -7  -2 1494.86 173.008   2
   4  -7  -3 6062.07 272.015   2
   4  -7  -4 4783.54 258.057   2
   4  -7  -5 8264.43 331.982   2
   4  -7  -6 424.162 163.584   2
   4  -7  -7 2966.61 247.732   2
   4  -7  -8 281.124 183.439   2
   4  -7  -9 4075.30 319.965   2
   4  -7 -10 1322.00 256.405   2
   4  -7 -11 1640.53 281.834   2
   4  -7 -12 185.885 198.490   2
   4  -7 -13 1327.64 251.448   2
   4  -7 -14 121.554 201.387   2
   4  -7 -15 399.560 292.624   2
   4  -7 -16 471.384 299.995   2
   4  -8  15 528.816 559.974   2
   4  -8  14 667.897 561.454   2
   4  -8  13 1146.94 591.941   2
   4  -8  12 831.784 241.241   2
   4  -8  11 562.672 210.173   2
   4  -8  10 1427.58 234.643   2
   4  -8   9 171.225 181.489   2
   4  -8   8 2210.43 248.209   2
   4  -8   7 2370.58 255.332   2
   4  -8   6 2971.99 317.575   2
   4  -8   5 213.156 201.570   2
   4  -8   4 5124.00 376.861   2
   4  -8   3 1454.25 199.237   2
   4  -8   2 3707.04 242.021   2
   4  -8   1 1182.70 182.062   2
   4  -8   0 2597.44 215.730   2
   4  -8  -1 1343.11 186.329   2
   4  -8  -2 6366.69 297.673   2
   4  -8  -3 2604.44 224.143   2
   4  -8  -4 5286.81 295.299   2
   4  -8  -5 694.473 176.299   2
   4  -8  -6 3090.45 264.617   2
   4  -8  -7 1533.84 233.066   2
   4  -8  -8 1853.57 252.415   2
   4  -8  -9 721.961 229.308   2
   4  -8 -10 2704.55 312.463   2
   4  -8 -11 1372.17 231.191   2
   4  -8 -12 1856.62 257.302   2
   4  -8 -13 124.204 191.170   2
   4  -8 -14 1090.13 238.292   2
   4  -8 -15 365.627 235.015   2
   4  -9  15 366.929 542.018   2
   4  -9  14 685.910 575.254   2
   4  -9  13 648.810 266.513   2
   4  -9  12 1069.88 252.485   2
   4  -9  11 1206.94 247.050   2
   4  -9  10 1435.81 248.130   2
   4  -9   9 1208.04 234.856   2
   4  -9   8 883.926 255.052   2
   4  -9   7 1546.80 302.178   2
   4  -9   6 4222.44 378.604   2
   4  -9   5 3660.89 365.900   2
   4  -9   4 1514.28 208.202   2
   4  -9   3 4015.07 277.091   2
   4  -9   2 1637.87 211.274   2
   4  -9   1 5672.76 310.700   2
   4  -9   0 4510.97 280.004   2
   4  -9  -1 3579.62 259.926   2
   4  -9  -2 422.463 169.819   2
   4  -9  -3 8047.25 360.031   2
   4  -9  -4 1813.20 224.299   2
   4  -9  -5 3401.45 280.664   2
   4  -9  -6 1061.85 226.942   2
   4  -9  -7 2883.68 289.644   2
   4  -9  -8 565.569 235.315   2
   4  -9  -9 1963.91 283.703   2
   4  -9 -10 558.113 195.176   2
   4  -9 -11 1800.01 247.330   2
   4  -9 -12 310.250 199.666   2
   4  -9 -13 1198.93 236.939   2
   4  -9 -14 167.390 225.027   2
   4 -10  15 445.227 586.531   2
   4 -10  14 102.294 532.772   2
   4 -10  13 1024.99 277.164   2
   4 -10  12 615.272 263.357   2
   4 -10  11 1016.03 279.601   2
   4 -10  10 945.237 247.661   2
   4 -10   9 645.996 270.731   2
   4 -10   8 1616.29 308.513   2
   4 -10   7 1117.46 288.744   2
   4 -10   6 1169.54 228.278   2
   4 -10   5 2735.54 265.708   2
   4 -10   4 3797.47 289.183   2
   4 -10   3 5193.09 323.328   2
   4 -10   2 4046.50 295.240   2
   4 -10   1 1771.94 238.046   2
   4 -10   0 1094.72 213.473   2
   4 -10  -1 3603.68 284.667   2
   4 -10  -2 3826.77 295.676   2
   4 -10  -3 2875.17 268.316   2
   4 -10  -4 3169.87 283.441   2
   4 -10  -5 2226.43 266.524   2
   4 -10  -6 2500.06 288.637   2
   4 -10  -7 987.452 255.647   2
   4 -10  -8 1656.57 273.440   2
   4 -10  -9 535.570 190.672   2
   4 -10 -10 1391.41 209.848   2
   4 -10 -11 377.511 241.108   2
   4 -10 -12 1091.68 272.455   2
   4 -10 -13 428.310 272.474   2
   4 -11  14 307.893 301.106   2
   4 -11  13 444.436 267.855   2
   4 -11  12 989.146 349.682   2
   4 -11  11 793.193 309.368   2
   4 -11  10 3121.09 422.409   2
   4 -11   9 1016.71 318.233   2
   4 -11   8 564.284 301.969   2
   4 -11   7 1869.77 270.108   2
   4 -11   6 2137.46 279.624   2
   4 -11   5 2582.47 281.047   2
   4 -11   4 1414.00 242.217   2
   4 -11   3 2225.90 267.561   2
   4 -11   2 874.876 216.774   2
   4 -11   1 2542.30 274.622   2
   4 -11   0 631.281 220.603   2
   4 -11  -1 5039.56 350.142   2
   4 -11  -2 1067.69 236.185   2
   4 -11  -3 3153.45 299.178   2
   4 -11  -4 1388.72 254.592   2
   4 -11  -5 2499.20 294.952   2
   4 -11  -6 409.538 232.636   2
   4 -11  -7 1779.85 299.700   2
   4 -11  -8 199.374 258.081   2
   4 -11  -9 1356.31 244.750   2
   4 -11 -10 250.471 235.348   2
   4 -11 -11 716.976 262.095   2
   4 -11 -12 569.633 281.947   2
   4 -12  13 1196.11 374.208   2
   4 -12  12 973.807 353.107   2
   4 -12  11 808.801 351.631   2
   4 -12  10 1095.11 361.201   2
   4 -12   9 1170.12 386.204   2
   4 -12   8 641.082 256.353   2
   4 -12   7 415.998 223.263   2
   4 -12   6 770.611 331.948   2
   4 -12   5 1998.93 399.813   2
   4 -12   4 2128.28 406.602   2
   4 -12   3 1508.96 263.402   2
   4 -12   2 2382.77 290.543   2
   4 -12   1 2057.49 283.922   2
   4 -12   0 1610.19 271.786   2
   4 -12  -1 2167.15 295.303   2
   4 -12  -2 1700.34 284.958   2
   4 -12  -3 879.585 261.504   2
   4 -12  -4 3546.92 341.054   2
   4 -12  -5 1323.17 295.305   2
   4 -12  -6 940.508 288.616   2
   4 -12  -7 875.098 291.746   2
   4 -12  -8 1096.29 318.058   2
   4 -12  -9 207.165 294.736   2
   4 -12 -10 1290.65 358.839   2
   4 -13  12 1088.58 399.024   2
   4 -13  11 404.961 347.843   2
   4 -13  10 972.793 415.853   2
   4 -13   9 811.523 280.296   2
   4 -13   8 1170.18 382.002   2
   4 -13   7 1134.40 402.267   2
   4 -13   6 1987.78 304.857   2
   4 -13   5 1629.56 418.278   2
   4 -13   4 1197.27 271.099   2
   4 -13   3 2682.04 316.405   2
   4 -13   2 1974.80 307.788   2
   4 -13   1 1773.38 294.182   2
   4 -13   0 931.025 268.254   2
   4 -13  -1 478.983 248.714   2
   4 -13  -2 1344.60 278.667   2
   4 -13  -3 2939.32 351.851   2
   4 -13  -4 1460.94 291.943   2
   4 -13  -5 1463.00 324.661   2
   4 -13  -6 825.508 287.348   2
   4 -13  -7 785.042 322.658   2
   4 -13  -8 611.428 306.538   2
   4 -14  11 1111.97 428.850   2
   4 -14  10 769.072 422.191   2
   4 -14   9 874.451 435.611   2
   4 -14   8 476.185 282.834   2
   4 -14   7 613.980 279.339   2
   4 -14   6 821.564 291.317   2
   4 -14   5 1359.13 423.254   2
   4 -14   4 426.609 277.443   2
   4 -14   3 1729.57 466.456   2
   4 -14   2 1852.15 488.267   2
   4 -14   1 1440.88 494.218   2
   4 -14   0 1219.53 309.618   2
   4 -14  -1 1313.67 315.671   2
   4 -14  -2 979.582 300.920   2
   4 -14  -3 1605.62 329.847   2
   4 -14  -4 1523.21 336.891   2
   4 -14  -5 1064.59 325.498   2
   4 -14  -6 1880.01 370.829   2
   4 -15   8 902.443 325.495   2
   4 -15   7 1030.78 465.019   2
   4 -15   6 430.320 402.812   2
   4 -15   5 722.874 309.544   2
   4 -15   4 1247.07 470.490   2
   4 -15   3 1226.32 328.502   2
   4 -15   2 1423.82 504.048   2
   4 -15   1 974.458 321.206   2
   4 -15   0 398.570 300.167   2
   4 -15  -1 1536.01 345.030   2
   4 -15  -2 1039.81 334.837   2
   4 -15  -3 788.692 339.798   2
   3  13  -3 1803.94 495.304   2
   3  13  -4 1006.01 456.774   2
   3  13  -9 1207.18 506.498   2
   3  13 -10 118.518 463.370   2
   3  12   1 1055.75 317.910   2
   3  12   0 1244.18 331.970   2
   3  12  -1 826.891 389.734   2
   3  12  -2 1342.87 428.925   2
   3  11   4 664.940 320.337   2
   3  11   3 779.662 379.260   2
   3  11   2 1130.76 417.064   2
   3  11   1 2416.30 345.742   2
   3  11   0 510.449 380.297   2
   3  11  -1 1712.98 396.735   2
   3  10   6 728.668 313.928   2
   3  10   5 1383.54 405.260   2
   3  10   4 3463.28 504.053   2
   3  10   3 1427.73 356.810   2
   3  10   2 1065.87 364.598   2
   3  10   1 1755.91 383.153   2
   3  10   0 1148.46 358.282   2
   3  10  -1 1223.18 351.409   2
   3  10  -3 2336.23 387.506   2
   3   9   7 318.527 285.584   2
   3   9   6 615.215 282.438   2
   3   9   5 768.848 269.645   2
   3   9   4 1735.32 397.381   2
   3   9   3 1188.87 261.906   2
   3   9   2 742.928 233.865   2
   3   9   1 2503.92 300.331   2
   3   9   0 1189.78 314.548   2
   3   9  -1 1198.57 351.169   2
   3   9  -2 1361.37 332.087   2
   3   9  -8 473.051 198.223   2
   3   9  -9 1976.32 288.825   2
   3   9 -11 563.438 268.088   2
   3   9 -12 423.067 272.289   2
   3   9 -13 975.754 307.515   2
   3   9 -14 443.117 315.093   2
   3   9 -15 1166.91 383.392   2
   3   9 -16 178.613 318.501   2
   3   9 -17 1077.02 407.550   2
   3   8   9 623.543 409.474   2
   3   8   8 1262.13 420.397   2
   3   8   7 1730.66 402.158   2
   3   8   6 388.650 244.715   2
   3   8   5 1379.16 275.144   2
   3   8   4 2200.59 288.989   2
   3   8   3 1977.73 284.534   2
   3   8   2 2828.80 289.666   2
   3   8   1 4410.42 293.826   2
   3   8   0 4428.46 271.470   2
   3   8  -1 1599.37 314.085   2
   3   8  -2 2626.71 341.923   2
   3   8  -3 2109.29 316.913   2
   3   8  -4 4314.27 421.368   2
   3   8 -11 1185.69 275.036   2
   3   8 -12 1462.20 304.252   2
   3   8 -13 425.717 293.611   2
   3   8 -14 656.918 318.984   2
   3   8 -15 386.121 314.782   2
   3   8 -16 1178.10 208.731   2
   3   8 -18 19.8084 394.265   2
   3   7   7 1415.96 372.542   2
   3   7   6 1778.83 361.177   2
   3   7   5 775.216 235.081   2
   3   7   4 2059.14 266.565   2
   3   7   3 1294.32 228.892   2
   3   7   2 1922.88 252.800   2
   3   7   1 4021.82 367.749   2
   3   7   0 4823.60 269.899   2
   3   7  -1 2176.68 295.977   2
   3   7  -2 1011.32 252.331   2
   3   7  -5 1315.54 305.423   2
   3   7 -11 1298.89 279.784   2
   3   7 -12 777.362 281.271   2
   3   7 -13 1535.44 323.355   2
   3   7 -14 351.974 308.157   2
   3   7 -15 1016.46 241.072   2
   3   7 -16 406.765 229.456   2
   3   7 -17 963.276 430.325   2
   3   7 -18 197.711 414.718   2
   3   6   4 4699.05 309.921   2
   3   6   3 3958.68 240.461   2
   3   6   2 1906.19 275.701   2
   3   6   1 3298.03 239.082   2
   3   6   0 4844.79 354.754   2
   3   6  -1 6755.51 398.519   2
   3   6  -4 5260.32 379.998   2
   3   6  -5 6436.63 429.648   2
   3   6  -7 3833.31 357.718   2
   3   6  -9 1808.03 302.246   2
   3   6 -11 1375.87 279.565   2
   3   6 -13 1551.95 339.122   2
   3   6 -14 1756.79 246.639   2
   3   6 -15 519.240 206.100   2
   3   5   6 1092.35 335.432   2
   3   5   5 257.266 336.072   2
   3   5   4 3820.45 407.791   2
   3   5   3 4389.46 271.138   2
   3   5   2 2360.42 211.209   2
   3   5   1 1507.86 234.458   2
   3   5   0 3652.73 301.697   2
   3   5  -1 1406.25 223.358   2
   3   5  -2 5319.05 321.497   2
   3   5  -3 2652.39 262.136   2
   3   5  -4 2230.27 261.069   2
   3   5  -5 2637.09 284.536   2
   3   5  -6 1591.05 241.958   2
   3   5  -7 4716.49 354.092   2
   3   5 -12 587.120 200.995   2
   3   5 -13 2282.53 249.311   2
   3   5 -14 1249.17 217.903   2
   3   5 -15 1279.71 231.798   2
   3   4   9 2257.52 278.985   2
   3   4   6 2725.55 289.832   2
   3   4   5 3003.73 368.793   2
   3   4   4 1123.48 151.357   2
   3   4   3 5273.92 416.882   2
   3   4   2 5897.80 229.134   2
   3   4   1 7375.96 357.600   2
   3   4   0 12595.5 430.185   2
   3   4  -1 5680.74 301.767   2
   3   4  -2 2997.46 235.187   2
   3   4  -3 5473.17 303.596   2
   3   4  -4 12270.5 454.639   2
   3   4  -5 1881.50 230.070   2
   3   4  -6 7941.13 382.296   2
   3   4  -7 16536.5 546.677   2
   3   4  -9 2327.29 216.858   2
   3   4 -10 4025.65 376.033   2
   3   4 -11 2116.93 310.587   2
   3   4 -12 808.289 186.749   2
   3   4 -13 1734.84 224.432   2
   3   4 -14 2506.43 251.257   2
   3   4 -15 1487.11 269.654   2
   3   3   6 3987.30 403.964   2
   3   3   5 532.611 103.962   2
   3   3   4 3610.81 154.176   2
   3   3   3 762.824 105.111   2
   3   3   2 8653.86 242.118   2
   3   3   1 3944.91 248.857   2
   3   3   0 6339.72 279.865   2
   3   3  -1 8039.92 232.342   2
   3   3  -2 11030.7 338.288   2
   3   3  -3 1065.12 166.997   2
   3   3  -4 3753.31 242.194   2
   3   3  -5 1191.60 179.648   2
   3   3  -6 3216.85 248.064   2
   3   3  -7 7361.88 354.076   2
   3   3  -8 8060.00 393.023   2
   3   2  15 408.084 555.673   2
   3   2   8 1040.79 418.314   2
   3   2   6 5079.51 409.788   2
   3   2   4 2773.13 291.819   2
   3   2   3 8420.63 154.243   2
   3   2   2 7655.78 168.966   2
   3   2   1 3220.56 170.856   2
   3   2   0 8309.27 195.068   2
   3   2  -1 21513.9 235.912   2
   3   2  -2 2970.33 112.291   2
   3   2  -3 5126.81 170.168   2
   3   2  -4 7575.35 268.423   2
   3   2  -5 4736.90 192.575   2
   3   2  -6 2475.82 160.019   2
   3   2  -7 3960.93 312.882   2
   3   2  -8 10834.2 469.670   2
   3   2  -9 11190.1 471.908   2
   3   2 -10 2531.25 268.513   2
   3   2 -11 2036.11 250.466   2
   3   2 -12 729.709 201.531   2
   3   2 -13 1278.58 195.986   2
   3   2 -14 2412.70 245.792   2
   3   1  10 1623.89 206.813   2
   3   1   5 1112.53 227.155   2
   3   1   4 3372.76 284.806   2
   3   1   3 2236.98 243.437   2
   3   1   2 9860.26 305.289   2
   3   1   1 345.641 219.127   2
   3   1   0 8471.19 210.092   2
   3   1  -1 11278.6 147.198   2
   3   1  -2 6576.45 125.219   2
   3   1  -3 4108.49 142.751   2
   3   1  -5 12180.7 460.770   2
   3   1  -6 536.982 187.175   2
   3   1  -7 4673.92 302.953   2
   3   1  -8 7218.14 364.076   2
   3   1  -9 6425.13 350.019   2
   3   1 -10 6334.35 344.776   2
   3   1 -11 8475.15 376.474   2
   3   1 -12 916.053 181.607   2
   3   1 -13 1649.36 176.714   2
   3   1 -14 675.917 170.478   2
   3   0   9 6596.19 223.969   2
   3   0   7 6187.01 409.056   2
   3   0   6 7212.56 408.039   2
   3   0   5 9226.15 420.217   2
   3   0   4 814.338 192.522   2
   3   0   3 8096.51 340.580   2
   3   0   2 8351.49 320.242   2
   3   0   1 24304.7 398.423   2
   3   0   0 11886.5 223.565   2
   3   0  -1 6021.63 194.233   2
   3   0  -2 9599.51 191.430   2
   3   0  -3 13114.9 607.467   2
   3   0  -4 1004.27 164.398   2
   3   0  -5 5203.75 259.283   2
   3   0  -6 919.347 167.837   2
   3   0  -7 5626.84 310.811   2
   3   0  -8 3568.20 258.488   2
   3   0  -9 6817.63 336.293   2
   3   0 -10 1870.45 205.635   2
   3   0 -11 2024.28 211.098   2
   3   0 -12 1001.66 181.225   2
   3   0 -13 1731.25 202.059   2
   3  -1  10 1507.40 180.708   2
   3  -1   5 6134.80 233.126   2
   3  -1   4 1491.89 193.791   2
   3  -1   3 265.224 78.2131   2
   3  -1   2 7464.12 118.565   2
   3  -1   1 3636.38 86.6476   2
   3  -1   0 9796.24 141.934   2
   3  -1  -1 12834.8 188.258   2
   3  -1  -2 18989.8 646.089   2
   3  -1  -3 1335.02 160.873   2
   3  -1  -4 6190.53 268.858   2
   3  -1  -5 3867.59 225.391   2
   3  -1  -6 12565.8 371.829   2
   3  -1  -7 5839.56 272.049   2
   3  -1  -8 4671.08 285.734   2
   3  -1  -9 7368.87 334.479   2
   3  -1 -10 7498.15 310.531   2
   3  -1 -12 2914.26 400.317   2
   3  -2  11 2471.69 234.483   2
   3  -2   5 8358.36 198.119   2
   3  -2   4 6138.96 148.486   2
   3  -2   3 13305.0 203.888   2
   3  -2   2 4884.45 100.452   2
   3  -2   1 7703.87 109.770   2
   3  -2   0 2993.37 90.3323   2
   3  -2  -1 28145.2 303.567   2
   3  -2  -2 12436.5 524.969   2
   3  -2  -3 5631.18 248.213   2
   3  -2  -4 4179.99 226.335   2
   3  -2  -5 5286.93 258.789   2
   3  -2  -6 886.082 154.936   2
   3  -2  -7 2144.45 196.982   2
   3  -2  -8 6068.94 622.392   2
   3  -2  -9 5116.29 612.644   2
   3  -2 -12 2543.15 395.634   2
   3  -2 -13 945.753 320.069   2
   3  -3   6 6847.66 246.481   2
   3  -3   5 726.902 116.205   2
   3  -3   4 11789.6 266.944   2
   3  -3   3 1999.33 137.762   2
   3  -3   2 7100.76 187.952   2
   3  -3   1 1786.18 124.646   2
   3  -3   0 12844.8 256.726   2
   3  -3  -1 3612.93 79.3854   2
   3  -3  -2 15548.0 182.670   2
   3  -3  -3 14359.3 199.248   2
   3  -3  -4 14573.0 228.538   2
   3  -3  -5 7275.38 235.725   2
   3  -3  -6 8135.31 276.811   2
   3  -3  -7 2207.03 198.766   2
   3  -3  -8 6880.63 306.699   2
   3  -3  -9 6822.95 717.150   2
   3  -3 -10 7343.69 792.440   2
   3  -3 -11 2501.78 374.709   2
   3  -3 -12 3892.41 361.053   2
   3  -4   6 1211.23 170.869   2
   3  -4   5 13352.1 375.549   2
   3  -4   4 754.983 143.400   2
   3  -4   3 1039.51 132.043   2
   3  -4   2 7607.44 316.148   2
   3  -4   1 25341.4 389.746   2
   3  -4   0 3913.08 136.251   2
   3  -4  -1 4136.62 134.506   2
   3  -4  -2 5643.62 139.013   2
   3  -4  -3 12885.1 219.840   2
   3  -4  -4 218.698 82.2658   2
   3  -4  -5 4231.98 206.170   2
   3  -4  -6 2668.51 195.828   2
   3  -4  -7 2994.22 214.713   2
   3  -4  -8 1951.55 223.884   2
   3  -4  -9 3403.17 272.303   2
   3  -4 -10 1972.21 246.349   2
   3  -4 -11 2137.93 608.645   2
   3  -4 -12 1483.54 341.712   2
   3  -4 -13 1683.02 315.825   2
   3  -5   8 3524.04 289.560   2
   3  -5   7 1144.19 199.622   2
   3  -5   6 12919.4 436.044   2
   3  -5   5 5596.59 253.261   2
   3  -5   4 7624.42 277.593   2
   3  -5   3 1012.97 176.049   2
   3  -5   2 6902.78 327.901   2
   3  -5   1 4914.91 210.338   2
   3  -5   0 11017.5 279.276   2
   3  -5  -1 2294.77 157.941   2
   3  -5  -2 23354.7 399.667   2
   3  -5  -3 4931.91 166.165   2
   3  -5  -4 5667.42 234.151   2
   3  -5  -5 5706.15 255.091   2
   3  -5  -6 7725.70 300.792   2
   3  -5  -7 1556.75 195.620   2
   3  -5  -8 4650.51 298.034   2
   3  -5  -9 3743.26 293.252   2
   3  -5 -10 6755.16 306.605   2
   3  -5 -11 979.122 257.247   2
   3  -5 -12 1945.40 316.636   2
   3  -5 -13 1934.32 334.783   2
   3  -5 -14 928.545 618.139   2
   3  -6  14 859.223 298.878   2
   3  -6   8 1121.04 223.703   2
   3  -6   7 7706.45 403.772   2
   3  -6   6 183.991 167.088   2
   3  -6   5 8476.35 391.309   2
   3  -6   4 1128.95 213.888   2
   3  -6   3 5620.27 328.051   2
   3  -6   2 1146.42 148.284   2
   3  -6   1 3345.07 194.095   2
   3  -6   0 236.912 119.572   2
   3  -6  -1 11298.7 313.667   2
   3  -6  -2 2669.54 180.658   2
   3  -6  -3 8293.90 288.860   2
   3  -6  -4 3839.52 223.905   2
   3  -6  -5 4454.84 248.933   2
   3  -6  -6 947.433 181.578   2
   3  -6  -7 2632.06 238.262   2
   3  -6  -8 1393.46 220.826   2
   3  -6  -9 3761.74 305.629   2
   3  -6 -10 3070.07 303.338   2
   3  -6 -11 3019.75 256.522   2
   3  -6 -12 1415.63 592.636   2
   3  -6 -13 784.770 290.851   2
   3  -6 -14 943.552 613.240   2
   3  -7  11 583.036 267.166   2
   3  -7   9 342.502 209.070   2
   3  -7   8 3102.76 329.945   2
   3  -7   7 1434.26 252.052   2
   3  -7   6 5966.57 312.157   2
   3  -7   5 192.143 176.364   2
   3  -7   4 29177.9 744.070   2
   3  -7   3 1922.33 192.939   2
   3  -7   2 6801.18 281.771   2
   3  -7   1 4895.38 245.563   2
   3  -7   0 10467.6 328.629   2
   3  -7  -1 864.180 161.966   2
   3  -7  -2 12167.6 357.778   2
   3  -7  -3 4761.93 250.156   2
   3  -7  -4 14255.8 413.063   2
   3  -7  -5 2919.77 239.405   2
   3  -7  -6 4505.35 288.085   2
   3  -7  -7 1399.18 221.686   2
   3  -7  -8 2501.68 266.569   2
   3  -7  -9 2004.66 272.852   2
   3  -7 -10 3785.59 261.047   2
   3  -7 -11 1194.41 221.306   2
   3  -7 -12 2820.36 368.835   2
   3  -7 -13 1347.58 329.506   2
   3  -7 -14 456.131 719.581   2
   3  -7 -15-178.513 678.012   2
   3  -7 -16 412.303 804.987   2
   3  -8  11 2941.84 374.347   2
   3  -8  10-9.39503 235.131   2
   3  -8   9 2234.69 325.506   2
   3  -8   8 842.273 249.834   2
   3  -8   7 4103.87 378.515   2
   3  -8   6 489.071 229.666   2
   3  -8   5 8429.59 464.106   2
   3  -8   4 1164.01 192.241   2
   3  -8   3 2165.75 205.684   2
   3  -8   2 362.067 156.029   2
   3  -8   1 3685.67 238.538   2
   3  -8   0 2372.66 213.526   2
   3  -8  -1 4293.61 254.505   2
   3  -8  -2 426.334 157.664   2
   3  -8  -3 6295.41 308.927   2
   3  -8  -4 952.017 339.261   2
   3  -8  -5 2524.22 248.733   2
   3  -8  -6 2588.88 263.186   2
   3  -8  -7 2985.27 281.644   2
   3  -8  -8 277.007 155.193   2
   3  -8  -9 1780.42 202.840   2
   3  -8 -10 899.123 251.296   2
   3  -8 -11 3211.75 357.346   2
   3  -8 -12 518.546 279.508   2
   3  -8 -13 2221.39 706.100   2
   3  -8 -14 151.108 690.830   2
   3  -9  13 388.145 308.523   2
   3  -9  11 405.249 287.904   2
   3  -9  10 3295.35 412.318   2
   3  -9   9 177.161 267.095   2
   3  -9   8 2122.71 344.605   2
   3  -9   7 1958.58 327.672   2
   3  -9   6 8177.34 497.433   2
   3  -9   5 520.288 244.343   2
   3  -9   4 8215.38 359.271   2
   3  -9   3 594.592 252.634   2
   3  -9   2 9187.73 368.761   2
   3  -9   1 409.436 248.392   2
   3  -9   0 9176.19 550.130   2
   3  -9  -1 922.617 200.156   2
   3  -9  -2 9192.58 567.939   2
   3  -9  -3 1901.88 353.272   2
   3  -9  -4 6034.85 334.099   2
   3  -9  -5 759.699 225.408   2
   3  -9  -6 3819.33 306.616   2
   3  -9  -7 3034.93 226.746   2
   3  -9  -8 2307.54 219.440   2
   3  -9  -9 198.948 448.698   2
   3  -9 -10 2035.01 239.066   2
   3  -9 -11 961.530 553.227   2
   3  -9 -12 1793.54 366.174   2
   3  -9 -13 1718.24 687.918   2
   3  -9 -14 1336.20 710.880   2
   3 -10  16 228.374 321.251   2
   3 -10  14 406.591 321.245   2
   3 -10  13 1841.57 405.070   2
   3 -10  10 7.20794 302.200   2
   3 -10   9 1853.59 369.940   2
   3 -10   8 137.520 255.183   2
   3 -10   7 2348.26 280.485   2
   3 -10   6 183.387 271.466   2
   3 -10   5 4032.65 414.675   2
   3 -10   4 728.412 299.801   2
   3 -10   3 9739.34 582.135   2
   3 -10   2 233.275 248.892   2
   3 -10   1 613.944 194.054   2
   3 -10   0 842.927 309.146   2
   3 -10  -1 3592.99 422.650   2
   3 -10  -2 150.226 188.468   2
   3 -10  -3 7404.41 571.765   2
   3 -10  -4 1023.90 227.841   2
   3 -10  -5 2925.33 303.522   2
   3 -10  -6 306.239 142.245   2
   3 -10  -7 1383.59 231.161   2
   3 -10  -8 160.681 423.818   2
   3 -10  -9 2143.75 315.647   2
   3 -10 -10 578.500 287.869   2
   3 -10 -11 2701.25 648.962   2
   3 -10 -12-106.182 612.434   2
   3 -10 -13 1041.14 595.542   2
   3 -11  13 414.626 399.593   2
   3 -11  12 1718.59 405.976   2
   3 -11  11 191.420 315.105   2
   3 -11  10 2265.20 418.648   2
   3 -11   9 188.239 321.964   2
   3 -11   8 3098.72 417.524   2
   3 -11   7 540.379 222.674   2
   3 -11   6 3203.07 402.340   2
   3 -11   5 519.726 299.461   2
   3 -11   4 7436.55 552.545   2
   3 -11   3 2073.53 376.105   2
   3 -11   2 5927.35 496.211   2
   3 -11   1 1432.28 324.082   2
   3 -11   0 3934.08 461.464   2
   3 -11  -1 670.972 334.245   2
   3 -11  -2 3034.83 442.123   2
   3 -11  -3 1685.97 260.267   2
   3 -11  -4 6854.04 608.091   2
   3 -11  -5 1613.61 278.367   2
   3 -11  -6 2317.53 500.283   2
   3 -11  -7 1691.55 307.473   2
   3 -11  -8 1559.47 316.543   2
   3 -11  -9 329.274 278.108   2
   3 -11 -10 1604.00 580.888   2
   3 -11 -11 600.823 601.136   2
   3 -12  14 87.0213 380.689   2
   3 -12  13 1876.81 462.573   2
   3 -12  12 245.426 363.848   2
   3 -12  11 1395.44 403.538   2
   3 -12  10 191.178 347.628   2
   3 -12   9 2482.71 458.299   2
   3 -12   8 59.0878 330.969   2
   3 -12   7 2219.98 402.653   2
   3 -12   6 773.789 339.888   2
   3 -12   5 3661.93 325.708   2
   3 -12   4 89.4947 226.632   2
   3 -12   3 4933.68 509.848   2
   3 -12   2 22.6432 295.240   2
   3 -12   1 3327.73 465.286   2
   3 -12   0-13.5257 334.449   2
   3 -12  -1 4178.58 506.826   2
   3 -12  -2 213.071 356.562   2
   3 -12  -3 2516.25 472.017   2
   3 -12  -4 21.0848 386.620   2
   3 -12  -5 3130.16 528.206   2
   3 -12  -6 332.818 263.020   2
   3 -12  -7 1166.57 322.762   2
   3 -12  -8 507.552 308.069   2
   3 -12  -9 1282.24 548.257   2
   3 -12 -10 397.929 328.278   2
   3 -13  13 277.118 372.580   2
   3 -13  12 2007.78 472.269   2
   3 -13  11 258.080 383.755   2
   3 -13  10 2672.22 465.374   2
   3 -13   9 660.895 360.477   2
   3 -13   8 1066.15 406.370   2
   3 -13   7 95.1042 366.940   2
   3 -13   6 4451.91 519.419   2
   3 -13   5 93.6230 357.752   2
   3 -13   4 2708.72 469.907   2
   3 -13   3 404.358 358.904   2
   3 -13   2 3481.50 484.204   2
   3 -13   1-54.7982 352.731   2
   3 -13   0 2984.81 486.957   2
   3 -13  -1 1671.62 440.567   2
   3 -13  -2 2516.79 493.372   2
   3 -13  -3 360.696 274.490   2
   3 -13  -4 1865.44 326.703   2
   3 -13  -5 1049.45 452.362   2
   3 -13  -6 2657.47 569.558   2
   3 -13  -7 1889.76 581.560   2
   3 -13  -8 1472.89 606.228   2
   3 -14  12 427.034 399.098   2
   3 -14  10 621.810 405.570   2
   3 -14   9 1698.20 474.598   2
   3 -14   8 259.259 387.492   2
   3 -14   7 1124.43 429.132   2
   3 -14   6 252.196 392.033   2
   3 -14   5 2619.04 494.849   2
   3 -14   4 15.0080 359.017   2
   3 -14   3 4837.39 595.034   2
   3 -14   2 296.358 408.958   2
   3 -14   1 1839.38 476.745   2
   3 -14   0-5.34986 424.907   2
   3 -14  -1 1972.85 486.418   2
   3 -14  -2 383.630 430.771   2
   3 -14  -3 3476.81 602.358   2
   3 -14  -4 261.612 467.589   2
   3 -14  -5 2588.12 388.737   2
   3 -14  -6 143.255 547.450   2
   3 -15  10 2226.83 519.822   2
   3 -15   9 68.4382 417.047   2
   3 -15   8 1988.67 508.033   2
   3 -15   7 39.0560 421.790   2
   3 -15   5 175.109 408.615   2
   3 -15   4 3077.51 578.170   2
   3 -15   3 397.414 420.533   2
   3 -15   2 3159.82 560.511   2
   3 -15   1-137.598 427.881   2
   3 -15   0 1780.45 516.865   2
   3 -15  -1 784.052 465.241   2
   3 -15  -2 1807.43 549.329   2
   3 -15  -3 476.451 464.896   2
   3 -16   4 502.996 444.370   2
   3 -16   3 1855.00 550.612   2
   3 -16   2 474.349 459.595   2
   2  14  -3 648.719 438.658   2
   2  14  -9 389.479 492.653   2
   2  13 -13 834.953 504.428   2
   2  10 -11 774.983 267.635   2
   2   9  -4 934.964 128.626   2
   2   8  11 2234.77 586.544   2
   2   8  -2 67.4278 124.009   2
   2   8  -3 3988.08 205.523   2
   2   5  -3 235.456 138.284   2
   2   4  -2 1223.42 178.430   2
   2   4  -6 3647.28 282.398   2
   2   4 -12 342.452 190.889   2
   2   4 -13 2373.62 251.490   2
   2   4 -14 1330.07 223.011   2
   2   3  10 3983.58 267.205   2
   2   3  -1 79.4778 91.4939   2
   2   3  -2 855.888 153.555   2
   2   3  -3 334.057 153.608   2
   2   3  -4 398.663 166.889   2
   2   3  -5 1724.66 211.733   2
   2   3  -6 3372.09 266.608   2
   2   3  -8 5739.42 346.740   2
   2   3 -13 648.785 167.332   2
   2   3 -14 1693.46 211.364   2
   2   2   0 464.171 148.634   2
   2   2  -1 6634.87 195.606   2
   2   2  -2 6382.98 149.003   2
   2   2  -3 1471.89 154.044   2
   2   2  -4 4765.31 231.796   2
   2   2  -5 17818.9 442.571   2
   2   2  -6 2042.23 210.574   2
   2   2 -10 4865.10 272.048   2
   2   2 -11 8458.15 346.396   2
   2   2 -12 398.007 140.318   2
   2   2 -13 4751.44 252.212   2
   2   1   2 2174.18 190.423   2
   2   1   1 8301.72 154.707   2
   2   1   0 17606.8 194.601   2
   2   1  -1 8308.34 114.037   2
   2   1  -2 10303.6 147.283   2
   2   1  -3 3088.83 88.9818   2
   2   1  -4 1746.22 109.177   2
   2   1  -5 2017.34 138.030   2
   2   1  -6 7953.28 314.475   2
   2   1  -7 84.3147 84.9563   2
   2   1  -8 4574.83 173.077   2
   2   1  -9 871.811 98.2060   2
   2   1 -10 2700.96 136.489   2
   2   1 -11 732.278 91.8299   2
   2   1 -12 4306.96 154.181   2
   2   1 -13 48.8103 99.9665   2
   2   0   4 1286.11 159.438   2
   2   0   3 2421.96 181.392   2
   2   0   2 3323.08 144.314   2
   2   0   1 7146.68 148.184   2
   2   0   0 436.954 74.7957   2
   2   0  -1 9139.48 192.474   2
   2   0  -2 1827.22 117.328   2
   2   0  -3 5617.78 142.382   2
   2   0  -4 11988.6 192.286   2
   2   0  -5 3423.17 151.302   2
   2   0  -6 46.7235 81.0058   2
   2   0  -7 10340.1 226.534   2
   2   0  -8 246.473 78.9496   2
   2   0  -9 13082.5 248.072   2
   2   0 -10 425.444 78.2666   2
   2   0 -11 3033.27 126.690   2
   2  -1   6 5378.48 239.065   2
   2  -1   5 1742.65 167.255   2
   2  -1   4 4504.79 227.130   2
   2  -1   3 1860.12 64.8458   2
   2  -1   2 728.885 47.5675   2
   2  -1   1 3308.77 70.0976   2
   2  -1   0 11981.1 109.185   2
   2  -1  -1 2362.58 149.676   2
   2  -1  -2 14048.0 196.524   2
   2  -1  -3 6402.24 144.402   2
   2  -1  -4 436.695 76.2492   2
   2  -1  -5-20.3542 79.7519   2
   2  -1  -6 5965.39 178.349   2
   2  -1  -7 905.449 95.1705   2
   2  -1  -8 7930.24 197.420   2
   2  -2   7 12639.8 354.156   2
   2  -2   6 238.269 121.393   2
   2  -2   3 1588.25 149.675   2
   2  -2   2 9024.65 247.223   2
   2  -2   1 8899.60 142.799   2
   2  -2   0 608.312 77.8258   2
   2  -2  -1 8000.16 127.552   2
   2  -2  -2 361.101 145.668   2
   2  -3  10 2176.70 184.844   2
   2  -3   3 5868.51 308.279   2
   2  -3   2 2040.68 164.695   2
   2  -3   1 4714.98 138.808   2
   2  -3   0 10999.1 179.858   2
   2  -3  -1 8519.84 236.900   2
   2  -4   3 18840.3 612.412   2
   2  -4   2 2039.98 218.807   2
   2  -4   1 4468.32 263.217   2
   2  -4   0 2082.56 130.638   2
   2  -4  -1 9845.15 315.193   2
   2  -5   1 415.185 168.221   2
   2  -5   0 1667.67 197.589   2
   2  -5  -1 512.079 146.609   2
   2  -7   3 2659.89 303.790   2
   2  -7   2 2172.77 272.062   2
   2  -8  18 540.491 334.821   2
   1  14   1 1819.86 371.542   2
   1  14 -12 1052.87 517.783   2
   1  11 -17 192.853 395.628   2
   1  10  10 2354.91 392.901   2
   1   9  -3 459.182 101.056   2
   1   8 -19 871.719 409.956   2
   1   2  10 6882.88 195.522   2
   1   2  -3 196.989 132.459   2
   1   2 -13 2552.29 112.534   2
   1   1  -1 8984.57 117.902   2
   1   1  -2 11252.1 235.993   2
   1   1  -3 2544.38 156.958   2
   1   0   2 22730.8 327.806   2
   1   0   1 4221.05 225.216   2
   1   0  -3 25191.1 346.777   2
   1  -1   2 21564.5 363.019   2
   1  -1   1 5390.08 126.247   2
   1  -1  -2 5375.31 124.097   2
   1  -2  17 1736.11 368.874   2
   1  -2   2 2126.42 182.517   2
   1  -2   1 9388.59 272.612   2
   1  -3   1 41648.8 591.522   2
   1  -3   0 25605.4 442.534   2
   1  -7  19 1036.09 461.258   2
  -1   7 -19 1475.80 539.125   2
  -1   2   0 10320.6 248.963   2
  -1   2  -1 8902.35 269.751   2
  -1   2  -2 2119.15 180.161   2
  -1   2  -3 2341.73 194.162   2
  -1   2 -19 417.500 336.704   2
  -1   1   2 5674.81 176.248   2
  -1   1  -2 20596.0 353.464   2
  -1   1  -3 12185.9 246.700   2
  -1   0   3 24181.9 331.999   2
  -1   0  -1 5480.57 175.254   2
  -1  -1   3 3500.64 173.621   2
  -1  -1   2 10916.9 245.663   2
  -1  -1   1 8690.20 132.269   2
  -1  -1   0 830.650 102.745   2
  -1  -1 -18 1149.58 389.820   2
  -1  -2   2 30018.5 453.566   2
  -1 -10 -10 2247.84 555.940   2
  -1 -14  12 437.458 493.928   2
  -1 -14  -1 1816.45 364.409   2
  -2   8 -18 377.544 298.369   2
  -2   5  -3 2106.54 258.045   2
  -2   5  -4 1417.70 235.268   2
  -2   5 -12 1403.50 204.235   2
  -2   4   1 10585.5 241.065   2
  -2   4  -1 4234.59 181.472   2
  -2   4  -2 2326.23 157.968   2
  -2   4  -3 17452.1 524.883   2
  -2   4  -4 3615.77 286.895   2
  -2   4 -12 328.800 128.688   2
  -2   3   4 3780.92 232.383   2
  -2   3   2 9681.08 257.538   2
  -2   3   1 8777.47 139.502   2
  -2   3   0 11338.5 238.666   2
  -2   3  -1 4261.75 256.306   2
  -2   3  -2 2035.07 124.962   2
  -2   3  -3 5230.78 153.134   2
  -2   3  -4 4803.35 159.188   2
  -2   3  -5 659.333 92.8499   2
  -2   3  -7 4825.12 257.654   2
  -2   3 -11 1040.92 140.028   2
  -2   2   5 1497.42 161.904   2
  -2   2   4 2266.67 190.278   2
  -2   2   3 11167.2 343.749   2
  -2   2   2 233.567 59.6838   2
  -2   2   1 8220.92 154.510   2
  -2   2   0 503.058 71.7869   2
  -2   2  -1 9204.88 154.397   2
  -2   2  -2 8648.11 138.308   2
  -2   2  -3 1514.46 80.9493   2
  -2   2  -4 393.765 88.1660   2
  -2   2  -5 6881.49 185.004   2
  -2   2  -6 184.060 111.478   2
  -2   2 -18 406.666 335.249   2
  -2   1   6 5678.16 259.373   2
  -2   1   5 8.62538 101.642   2
  -2   1   4 369.833 63.2721   2
  -2   1   3 6618.63 129.350   2
  -2   1   2 14399.5 229.518   2
  -2   1   1 2475.38 138.327   2
  -2   1   0 13520.5 132.899   2
  -2   1  -1 3349.18 116.830   2
  -2   1  -2 798.766 56.4418   2
  -2   1  -3 1924.89 76.0929   2
  -2   1  -4 3993.17 112.451   2
  -2   1  -5 1941.00 115.819   2
  -2   1 -11 1911.02 138.400   2
  -2   0   7 10718.7 321.832   2
  -2   0   6-23.4099 114.345   2
  -2   0   5 3256.55 209.825   2
  -2   0   4 11709.6 182.988   2
  -2   0   3 5147.17 98.4442   2
  -2   0   2 1664.35 97.5408   2
  -2   0   1 8714.42 125.847   2
  -2   0   0 377.110 52.7486   2
  -2   0  -1 6703.04 125.169   2
  -2   0  -2 2974.95 201.359   2
  -2   0  -3 2567.50 193.403   2
  -2  -1   6 8046.86 323.094   2
  -2  -1   5 1823.99 134.344   2
  -2  -1   4 1564.48 133.102   2
  -2  -1   3 2888.08 84.3096   2
  -2  -1   2 11099.6 122.258   2
  -2  -1   1 7939.95 198.078   2
  -2  -1   0 17896.5 275.825   2
  -2  -1  -1 8266.05 182.672   2
  -2  -1  -2 1909.30 185.259   2
  -2  -1 -17 1064.17 377.782   2
  -2  -2   6 2395.83 211.780   2
  -2  -2   5 19177.2 473.767   2
  -2  -2   4 5074.60 154.690   2
  -2  -2   3 1656.69 92.5101   2
  -2  -2   2 6249.00 192.343   2
  -2  -2   1 5931.94 197.372   2
  -2  -2   0 366.957 122.987   2
  -2  -3   5 1566.84 148.783   2
  -2  -3   4 622.166 95.4417   2
  -2  -3   3 352.485 92.6548   2
  -2  -3   2 687.458 213.172   2
  -2  -3   1 20.3073 150.762   2
  -2  -4   4 91.3955 215.631   2
  -2  -4 -15 1877.61 404.853   2
  -2  -6   8 863.566 115.657   2
  -2  -7  11 872.845 186.489   2
  -2  -7  10 1044.60 167.880   2
  -2  -8  -8 328.073 271.876   2
  -2  -8 -11 2231.84 385.313   2
  -2 -10  -4 233.428 310.318   2
  -2 -10  -7 2633.02 488.250   2
  -2 -12  15 933.374 514.854   2
  -2 -13  13 576.706 280.841   2
  -2 -14   9 320.980 272.938   2
  -2 -14   4 149.795 302.610   2
  -2 -14   3 255.879 250.679   2
  -3  14   6-204.855 426.159   2
  -3  14   5 2498.90 542.142   2
  -3  14   4 356.065 416.607   2
  -3  14   1 1303.74 454.049   2
  -3  13   8 1587.87 475.510   2
  -3  13   7 1659.65 496.283   2
  -3  13   6 2396.16 499.936   2
  -3  13   5 616.423 399.101   2
  -3  13   4 1737.29 447.775   2
  -3  13   3 242.795 377.375   2
  -3  13   2 2311.60 463.208   2
  -3  12  10 247.987 407.561   2
  -3  12   9 1370.03 433.563   2
  -3  12   8 19.4458 389.257   2
  -3  12   7 1083.91 413.285   2
  -3  12   6 357.914 366.240   2
  -3  12   5 3091.86 478.208   2
  -3  12   4-50.1010 346.332   2
  -3  12   3 3554.61 475.784   2
  -3  12   2 8.58847 323.487   2
  -3  12   1 2750.81 446.790   2
  -3  12  -7 1943.37 300.268   2
  -3  12  -8 203.296 240.608   2
  -3  12  -9 2567.53 368.779   2
  -3  12 -10 457.463 317.318   2
  -3  12 -11 2427.15 411.998   2
  -3  12 -12 30.2028 367.420   2
  -3  12 -13 2607.74 480.980   2
  -3  12 -14 178.886 409.824   2
  -3  11  11 704.515 402.415   2
  -3  11  10 1516.28 444.134   2
  -3  11   9 332.957 388.795   2
  -3  11   8 1711.16 303.347   2
  -3  11   7 1792.34 401.349   2
  -3  11   6 2536.69 427.790   2
  -3  11   5 1677.61 380.874   2
  -3  11   4 7204.56 383.777   2
  -3  11   3 1418.55 359.526   2
  -3  11   2 3016.99 439.363   2
  -3  11   1 286.722 325.185   2
  -3  11  -4 7955.31 403.306   2
  -3  11  -5 355.849 208.260   2
  -3  11  -6 3452.01 331.514   2
  -3  11  -7 324.866 244.666   2
  -3  11  -8 3410.73 376.542   2
  -3  11  -9 220.529 269.893   2
  -3  11 -10 2960.44 416.562   2
  -3  11 -11 46.4786 315.109   2
  -3  11 -12 2675.26 468.491   2
  -3  11 -13 359.991 381.748   2
  -3  11 -14 1180.82 442.523   2
  -3  11 -15-446.856 391.765   2
  -3  10  13 1159.01 431.731   2
  -3  10  12 93.9216 373.290   2
  -3  10  11 2386.00 472.151   2
  -3  10  10 369.238 353.871   2
  -3  10   9 1749.99 408.060   2
  -3  10   8 116.290 318.209   2
  -3  10   7 1583.79 261.623   2
  -3  10   6 428.039 214.565   2
  -3  10   5 2873.63 278.980   2
  -3  10   4 672.462 304.591   2
  -3  10   3 6891.74 522.750   2
  -3  10   2 41.7268 267.556   2
  -3  10   1 3745.88 422.198   2
  -3  10  -4 784.392 223.297   2
  -3  10  -5 4184.88 342.356   2
  -3  10  -6 363.547 222.423   2
  -3  10  -8 219.863 185.281   2
  -3  10  -9 2538.59 294.698   2
  -3  10 -10 219.067 188.694   2
  -3  10 -11 3552.21 373.745   2
  -3  10 -13 2524.68 480.876   2
  -3  10 -14 384.732 396.502   2
  -3  10 -15 872.309 456.171   2
  -3  10 -16 120.287 453.388   2
  -3   9  11 1044.77 379.674   2
  -3   9  10 2254.29 415.274   2
  -3   9   9 428.456 298.744   2
  -3   9   8 2140.81 268.652   2
  -3   9   7 3106.71 294.355   2
  -3   9   6 3971.08 298.942   2
  -3   9   5 806.547 277.325   2
  -3   9   4 5726.27 473.972   2
  -3   9   3 1444.45 202.685   2
  -3   9   2 9178.18 344.046   2
  -3   9   1 1175.33 284.553   2
  -3   9  -3 455.544 193.819   2
  -3   9  -4 10378.7 469.638   2
  -3   9  -5 337.864 203.352   2
  -3   9  -6 8151.66 476.998   2
  -3   9  -7 2304.65 201.019   2
  -3   9  -8 3124.10 239.710   2
  -3   9  -9 164.079 221.430   2
  -3   9 -11 541.768 326.727   2
  -3   9 -12 1648.28 351.921   2
  -3   9 -13 316.534 384.680   2
  -3   9 -14 1888.25 298.641   2
  -3   9 -15 238.874 388.157   2
  -3   9 -16 394.855 294.634   2
  -3   8  11 2789.78 312.980   2
  -3   8   8 228.343 286.330   2
  -3   8   7 3061.68 382.006   2
  -3   8   6 2738.05 247.741   2
  -3   8   5 2546.78 232.950   2
  -3   8   4 1116.26 260.475   2
  -3   8   3 5776.25 281.659   2
  -3   8   2 531.258 235.715   2
  -3   8   1 3798.04 368.771   2
  -3   8   0 2291.63 179.283   2
  -3   8  -1 3399.30 378.213   2
  -3   8  -2 474.727 186.241   2
  -3   8  -3 1890.93 193.305   2
  -3   8  -4 992.354 184.121   2
  -3   8  -6 223.156 160.620   2
  -3   8  -7 3511.98 249.601   2
  -3   8  -8 1449.58 257.882   2
  -3   8  -9 1966.96 353.949   2
  -3   8 -10 307.086 267.057   2
  -3   8 -12 177.759 196.374   2
  -3   8 -14 1292.08 430.759   2
  -3   8 -15 1772.56 326.309   2
  -3   8 -16 422.024 437.327   2
  -3   8 -17 890.287 326.365   2
  -3   7  11 1031.22 221.915   2
  -3   7   7 1150.51 292.801   2
  -3   7   6 4504.48 382.368   2
  -3   7   5 2737.69 319.670   2
  -3   7   4 13933.5 385.948   2
  -3   7   3 4999.03 311.138   2
  -3   7   2 11563.4 401.498   2
  -3   7   1 1062.36 163.638   2
  -3   7   0 11008.5 340.643   2
  -3   7  -2 8030.80 390.254   2
  -3   7  -3 2429.77 282.166   2
  -3   7  -4 30098.3 761.881   2
  -3   7  -5 151.431 123.357   2
  -3   7  -6 5628.48 283.805   2
  -3   7  -7 1518.75 218.562   2
  -3   7  -9 418.448 158.627   2
  -3   7 -10 3162.02 261.148   2
  -3   7 -11 505.949 237.120   2
  -3   7 -12 2019.24 245.620   2
  -3   7 -14 1698.83 465.023   2
  -3   7 -17 9.43713 485.192   2
  -3   6  10 2801.77 270.826   2
  -3   6   9 3710.71 299.802   2
  -3   6   7 2011.99 245.778   2
  -3   6   6 805.670 231.970   2
  -3   6   5 4081.04 316.883   2
  -3   6   4 3420.50 281.186   2
  -3   6   3 7452.37 254.281   2
  -3   6   2 2913.94 170.172   2
  -3   6   1 11350.6 264.559   2
  -3   6   0 197.424 87.0776   2
  -3   6  -1 3612.36 208.079   2
  -3   6  -2 1414.03 175.076   2
  -3   6  -3 4834.49 373.786   2
  -3   6  -4 862.505 199.382   2
  -3   6  -5 8651.15 422.262   2
  -3   6  -6 220.756 234.622   2
  -3   6  -7 7303.42 326.876   2
  -3   6  -8 751.736 234.349   2
  -3   6  -9 1281.97 253.784   2
  -3   6 -10 678.062 235.367   2
  -3   6 -11 5429.30 262.009   2
  -3   6 -12 268.379 205.447   2
  -3   5   8 3722.57 285.150   2
  -3   5   7 1575.38 209.610   2
  -3   5   5 5770.56 337.282   2
  -3   5   4 5788.60 238.384   2
  -3   5   3 4725.63 193.290   2
  -3   5   2 23325.7 293.192   2
  -3   5   1 2244.51 125.208   2
  -3   5   0 10653.3 198.827   2
  -3   5  -1 5214.86 118.573   2
  -3   5  -2 7218.11 399.506   2
  -3   5  -3 1035.47 151.621   2
  -3   5  -4 7813.30 205.426   2
  -3   5  -5 4918.39 348.919   2
  -3   5  -6 12136.3 500.180   2
  -3   5  -7 1241.34 232.616   2
  -3   5  -8 3150.83 305.341   2
  -3   5  -9 540.843 214.527   2
  -3   5 -10 778.012 220.887   2
  -3   5 -11 293.878 188.753   2
  -3   5 -12 3114.31 238.884   2
  -3   4   8 1934.53 229.409   2
  -3   4   7 3118.71 264.923   2
  -3   4   6 2362.86 239.264   2
  -3   4   5 4150.45 182.942   2
  -3   4   4 148.220 84.2345   2
  -3   4   3 12662.8 219.440   2
  -3   4   2 5831.03 157.033   2
  -3   4   1 4128.14 189.519   2
  -3   4   0 3987.49 198.726   2
  -3   4  -1 25753.5 363.540   2
  -3   4  -2 8102.51 193.980   2
  -3   4  -3 1139.58 121.930   2
  -3   4  -4 711.209 95.5344   2
  -3   4  -5 14057.6 362.489   2
  -3   4  -6 1209.59 232.099   2
  -3   4  -7 11821.9 472.256   2
  -3   4  -8 7674.88 395.997   2
  -3   4  -9 3521.67 284.965   2
  -3   4 -10 317.589 171.025   2
  -3   4 -11 3238.07 262.653   2
  -3   3  13 908.569 352.990   2
  -3   3   6 8067.95 232.619   2
  -3   3   5 7694.57 209.514   2
  -3   3   4 15630.6 265.335   2
  -3   3   3 14674.9 195.954   2
  -3   3   2 15552.5 289.195   2
  -3   3   1 3861.64 167.422   2
  -3   3   0 12034.5 199.890   2
  -3   3  -1 2071.85 98.7295   2
  -3   3  -2 7350.55 158.172   2
  -3   3  -3 1816.41 92.2322   2
  -3   3  -4 13793.5 259.193   2
  -3   3  -5 479.313 109.254   2
  -3   3  -6 6998.70 221.406   2
  -3   3  -7 301.245 97.2824   2
  -3   3  -8 5604.56 189.081   2
  -3   3  -9 845.295 174.262   2
  -3   3 -10 710.410 168.988   2
  -3   3 -11 15.9849 141.431   2
  -3   2   7 2912.68 155.794   2
  -3   2   6 1102.26 136.677   2
  -3   2   5 5520.43 165.409   2
  -3   2   4 4546.89 126.530   2
  -3   2   3 7011.51 179.624   2
  -3   2   2 13023.0 221.409   2
  -3   2   1 25572.9 276.326   2
  -3   2   0 3359.84 110.972   2
  -3   2  -1 7563.28 132.984   2
  -3   2  -2 5032.73 138.852   2
  -3   2  -3 14779.6 227.206   2
  -3   2  -4 6291.94 179.425   2
  -3   2  -5 8348.77 189.335   2
  -3   2  -6 2109.64 115.987   2
  -3   2  -7 8316.35 188.496   2
  -3   2  -8 3321.81 248.522   2
  -3   2  -9 4878.99 283.069   2
  -3   2 -10 1996.13 212.389   2
  -3   2 -17 98.1823 485.116   2
  -3   1   7 6527.04 222.919   2
  -3   1   6 13256.1 230.407   2
  -3   1   5 4549.10 145.220   2
  -3   1   4 6289.98 129.068   2
  -3   1   3 1577.05 208.795   2
  -3   1   2 18449.1 378.019   2
  -3   1   1 12521.0 297.433   2
  -3   1   0 10405.1 241.104   2
  -3   1  -1 4004.20 125.400   2
  -3   1  -2 7697.13 141.638   2
  -3   1  -3 360.436 165.725   2
  -3   1  -4 1370.57 202.788   2
  -3   1  -5 6719.30 331.861   2
  -3   1  -6 8677.14 364.248   2
  -3   1  -7 277.600 150.373   2
  -3   1  -8 5842.82 310.538   2
  -3   1  -9 2263.23 223.524   2
  -3   1 -10 1622.96 194.443   2
  -3   1 -14 2097.03 484.350   2
  -3   0  14 193.197 143.565   2
  -3   0   8 3730.54 187.470   2
  -3   0   7 5668.45 241.317   2
  -3   0   6 901.946 85.6198   2
  -3   0   5 5304.80 137.711   2
  -3   0   4 927.561 58.6863   2
  -3   0   3 12037.3 169.863   2
  -3   0   2 9079.94 138.017   2
  -3   0   1 5824.03 134.013   2
  -3   0   0 11424.0 157.633   2
  -3   0  -1 22647.8 218.212   2
  -3   0  -2 8190.88 182.413   2
  -3   0  -3 8247.58 213.880   2
  -3   0  -4 731.497 128.464   2
  -3   0  -5 10256.8 404.151   2
  -3   0  -6 7711.22 358.134   2
  -3   0  -7 6213.69 328.231   2
  -3   0  -8 3003.48 255.415   2
  -3   0  -9 8198.90 375.445   2
  -3   0 -10 1436.76 177.274   2
  -3   0 -15 2100.78 518.047   2
  -3   0 -16 782.092 352.051   2
  -3  -1  14 1225.30 187.275   2
  -3  -1  13 1708.66 216.845   2
  -3  -1  12 1277.96 202.095   2
  -3  -1  11 8386.43 371.010   2
  -3  -1  10 6319.73 272.282   2
  -3  -1   9 6281.37 245.018   2
  -3  -1   8 6753.44 349.673   2
  -3  -1   7 4813.93 306.927   2
  -3  -1   6 766.011 87.9465   2
  -3  -1   5 13030.2 197.732   2
  -3  -1   4 18510.7 209.164   2
  -3  -1   3 4207.01 90.1367   2
  -3  -1   2 6942.88 131.295   2
  -3  -1   1 11554.8 204.489   2
  -3  -1   0 8639.56 163.315   2
  -3  -1  -1 604.256 68.5085   2
  -3  -1  -2 10564.2 247.182   2
  -3  -1  -3 2342.14 143.503   2
  -3  -1  -4 4227.90 221.702   2
  -3  -1  -5 1230.29 137.456   2
  -3  -1  -6 4993.03 264.933   2
  -3  -1  -7 216.544 148.394   2
  -3  -1  -8 5575.59 280.202   2
  -3  -1  -9 1679.89 224.629   2
  -3  -1 -10 2710.67 432.810   2
  -3  -1 -11 308.410 343.421   2
  -3  -2  14 2195.36 167.275   2
  -3  -2  13 1686.84 155.467   2
  -3  -2  12 739.600 124.886   2
  -3  -2  11 2118.11 178.967   2
  -3  -2  10 2338.42 184.184   2
  -3  -2   9 11579.5 286.772   2
  -3  -2   8 10593.3 454.641   2
  -3  -2   7 4008.22 232.328   2
  -3  -2   6 2598.74 131.091   2
  -3  -2   5 4759.53 130.285   2
  -3  -2   4 7607.99 143.379   2
  -3  -2   3 5187.10 116.975   2
  -3  -2   2 2540.53 114.582   2
  -3  -2   1 21629.7 311.199   2
  -3  -2   0 7869.41 157.939   2
  -3  -2  -1 2966.60 123.795   2
  -3  -2  -2 7374.16 139.722   2
  -3  -2  -3 8524.81 155.915   2
  -3  -2  -4 2976.68 162.281   2
  -3  -2  -5 3893.80 247.465   2
  -3  -2  -6 5391.07 237.500   2
  -3  -2  -7 3459.36 249.047   2
  -3  -2  -8 703.022 179.124   2
  -3  -2  -9 3102.53 242.102   2
  -3  -2 -10 3254.29 437.344   2
  -3  -2 -11 2085.94 416.665   2
  -3  -2 -12 694.990 395.181   2
  -3  -2 -14 132.144 433.757   2
  -3  -2 -15 769.992 348.466   2
  -3  -3  15 2722.16 272.387   2
  -3  -3  14 1474.88 239.494   2
  -3  -3  13 1849.12 178.924   2
  -3  -3  12 1100.15 160.892   2
  -3  -3  11 4177.92 206.646   2
  -3  -3  10 1147.60 171.555   2
  -3  -3   9 2220.72 163.493   2
  -3  -3   8 8532.37 265.962   2
  -3  -3   7 8465.09 322.336   2
  -3  -3   6 3460.84 152.506   2
  -3  -3   5 1535.15 92.4865   2
  -3  -3   4 3840.72 117.631   2
  -3  -3   3 1219.59 83.2957   2
  -3  -3   2 11782.8 224.114   2
  -3  -3   1 7808.40 217.553   2
  -3  -3   0 7197.44 201.489   2
  -3  -3  -1 4270.02 155.934   2
  -3  -3  -2 7660.76 185.119   2
  -3  -3  -3 912.263 92.2222   2
  -3  -3  -4 3566.67 147.883   2
  -3  -3  -5 743.699 113.472   2
  -3  -3  -6 3986.59 178.205   2
  -3  -3  -7 4734.06 293.576   2
  -3  -3  -8 3860.37 231.685   2
  -3  -3  -9 804.443 244.101   2
  -3  -3 -12 2124.54 476.318   2
  -3  -3 -13 1474.81 469.320   2
  -3  -3 -14 895.642 486.679   2
  -3  -4  15 1252.74 247.809   2
  -3  -4  14 2912.57 317.493   2
  -3  -4  13 1937.95 287.443   2
  -3  -4  12 753.235 164.322   2
  -3  -4  11 1828.88 176.692   2
  -3  -4  10 3764.70 216.424   2
  -3  -4   9 2555.13 192.039   2
  -3  -4   8 3906.23 246.932   2
  -3  -4   7 17169.2 319.742   2
  -3  -4   6 8311.90 197.969   2
  -3  -4   5 1566.36 110.888   2
  -3  -4   4 12702.3 233.996   2
  -3  -4   3 5563.14 215.276   2
  -3  -4   2 3159.78 172.031   2
  -3  -4   1 5599.33 202.587   2
  -3  -4   0 14014.9 259.240   2
  -3  -4  -1 7784.30 194.857   2
  -3  -4  -2 5599.20 187.484   2
  -3  -4  -3 5151.19 188.385   2
  -3  -4  -4 1199.08 123.311   2
  -3  -4  -5 2906.14 146.799   2
  -3  -4  -6 2568.51 155.378   2
  -3  -4  -7 3336.95 284.169   2
  -3  -4  -8 607.149 336.669   2
  -3  -4  -9 2584.56 300.206   2
  -3  -4 -10 1044.11 276.158   2
  -3  -4 -11 1150.96 430.365   2
  -3  -4 -12 366.151 401.478   2
  -3  -4 -13 1379.34 463.078   2
  -3  -5  15 1270.57 292.378   2
  -3  -5  14 1287.39 297.447   2
  -3  -5  13 2465.48 334.880   2
  -3  -5  12 1158.10 300.052   2
  -3  -5  11 2474.04 243.539   2
  -3  -5  10 1174.13 179.958   2
  -3  -5   9 2226.49 323.354   2
  -3  -5   8 4058.42 391.489   2
  -3  -5   7 4816.68 157.907   2
  -3  -5   6 1605.42 114.935   2
  -3  -5   5 2532.87 213.951   2
  -3  -5   4 1882.17 166.678   2
  -3  -5   3 2645.92 228.186   2
  -3  -5   2 5657.77 225.708   2
  -3  -5   1 1644.31 154.510   2
  -3  -5   0 4398.09 175.895   2
  -3  -5  -1 1765.58 148.267   2
  -3  -5  -2 2015.03 135.579   2
  -3  -5  -3 5111.07 207.320   2
  -3  -5  -4 3700.71 168.271   2
  -3  -5  -5 117.434 135.298   2
  -3  -5  -6 1146.58 317.327   2
  -3  -5  -7 1735.18 247.692   2
  -3  -5  -8 1498.09 260.092   2
  -3  -5  -9 1218.83 268.403   2
  -3  -5 -10 2007.09 324.868   2
  -3  -5 -11 528.932 449.037   2
  -3  -5 -12 805.947 411.467   2
  -3  -6  16 922.227 296.287   2
  -3  -6  15 870.982 286.191   2
  -3  -6  14 2521.17 362.865   2
  -3  -6  13 1840.93 354.679   2
  -3  -6  12 1477.87 349.050   2
  -3  -6  11 1590.96 347.247   2
  -3  -6   9 1855.48 332.219   2
  -3  -6   8 4582.69 299.401   2
  -3  -6   7 3414.62 268.497   2
  -3  -6   6 4505.05 438.542   2
  -3  -6   5 5794.02 478.751   2
  -3  -6   4 4666.12 305.291   2
  -3  -6   3 3148.55 218.297   2
  -3  -6   2 4537.19 305.286   2
  -3  -6   1 7547.34 269.249   2
  -3  -6   0 5450.25 233.725   2
  -3  -6  -1 3592.34 285.788   2
  -3  -6  -2 2093.73 353.352   2
  -3  -6  -3 3622.40 408.924   2
  -3  -6  -4 4913.72 261.596   2
  -3  -6  -5 2569.72 249.134   2
  -3  -6  -6 1285.60 360.483   2
  -3  -6  -7 2249.93 271.572   2
  -3  -6  -8 1212.36 254.400   2
  -3  -6  -9 1558.12 284.618   2
  -3  -6 -10 1365.37 398.943   2
  -3  -6 -11 1016.32 311.990   2
  -3  -7  16 992.944 318.389   2
  -3  -7  15 1205.24 359.805   2
  -3  -7  14 600.683 332.470   2
  -3  -7  13 1974.80 383.357   2
  -3  -7  12 1045.21 331.615   2
  -3  -7   7 4760.18 436.200   2
  -3  -7   6 5887.46 466.565   2
  -3  -7   2 1116.74 198.325   2
  -3  -7   1 1558.61 333.725   2
  -3  -7   0 4902.06 278.841   2
  -3  -7  -1 3853.61 429.769   2
  -3  -7  -2 1959.06 215.318   2
  -3  -7  -3 1379.36 201.536   2
  -3  -7  -4 1524.40 204.486   2
  -3  -7  -5 1281.02 363.353   2
  -3  -7  -6 1829.84 244.763   2
  -3  -7  -7 1578.89 422.898   2
  -3  -7  -8 387.613 426.898   2
  -3  -7  -9 760.201 414.248   2
  -3  -7 -10 1911.28 549.783   2
  -3  -8  16 1567.34 375.123   2
  -3  -8  14 1465.83 405.913   2
  -3  -8  13 587.083 339.235   2
  -3  -8  11 1559.70 383.943   2
  -3  -8   6 8592.50 580.424   2
  -3  -8   1 1464.44 274.139   2
  -3  -8   0 4579.98 480.162   2
  -3  -8  -1 5426.62 521.133   2
  -3  -8  -2 2739.01 431.465   2
  -3  -8  -3 1618.24 393.293   2
  -3  -8  -4 2709.62 442.370   2
  -3  -8  -5 1293.72 401.569   2
  -3  -8  -6 849.460 414.374   2
  -3  -8  -7 1839.33 453.242   2
  -3  -8  -8 865.536 412.659   2
  -3  -8  -9 328.762 425.178   2
  -3  -9  16 59.4118 366.767   2
  -3  -9  11 830.092 369.269   2
  -3  -9   0 1390.14 392.399   2
  -3  -9  -1 2819.86 453.022   2
  -3  -9  -2 966.727 363.465   2
  -3  -9  -3 1289.66 380.539   2
  -3  -9  -4 1615.87 458.888   2
  -3  -9  -6 832.926 421.684   2
  -3  -9  -7 600.297 428.461   2
  -3 -10  -1 2506.23 462.103   2
  -3 -10  -2 1590.65 445.623   2
  -3 -10  -6 694.408 291.250   2
  -3 -11  -2 943.438 449.142   2
  -3 -11  -4 492.644 304.450   2
  -3 -12  -1 689.319 319.075   2
  -3 -13  10-109.722 317.006   2
  -3 -13   9 1682.69 360.804   2
  -3 -13   4 825.919 291.623   2
  -3 -13   3 1173.96 276.239   2
  -4  15   3 1043.28 470.951   2
  -4  15   2 1238.54 490.705   2
  -4  15   1 1208.80 499.442   2
  -4  15   0 545.899 473.823   2
  -4  15  -1 834.748 498.591   2
  -4  15  -2 1425.91 525.466   2
  -4  15  -3 1182.42 529.585   2
  -4  14   6 1468.37 331.138   2
  -4  14   5 1044.87 307.082   2
  -4  14   4 1670.79 312.459   2
  -4  14   3 1533.91 308.934   2
  -4  14   2 528.468 412.891   2
  -4  14   1 1545.80 470.667   2
  -4  14   0 1455.41 482.046   2
  -4  14  -1 2284.09 518.555   2
  -4  14  -2 1492.27 518.100   2
  -4  14  -3 1896.99 521.015   2
  -4  14  -4 558.414 460.371   2
  -4  13   8 504.480 293.425   2
  -4  13   7 565.656 287.262   2
  -4  13   6 1170.29 294.110   2
  -4  13   5 1276.71 278.169   2
  -4  13   4 1034.27 269.282   2
  -4  13   3 2892.40 319.883   2
  -4  13   2 890.797 254.614   2
  -4  13   1 501.715 229.773   2
  -4  13   0 887.186 236.540   2
  -4  13  -1 2545.84 496.512   2
  -4  13  -2 1819.98 456.861   2
  -4  13  -3 2344.24 500.220   2
  -4  12  10 1432.54 458.512   2
  -4  12   9 78.1193 383.291   2
  -4  12   8 921.441 286.315   2
  -4  12   7 1155.87 280.371   2
  -4  12   6 1290.95 289.736   2
  -4  12   5 1563.40 269.099   2
  -4  12   4 3514.92 323.534   2
  -4  12   3 941.796 240.566   2
  -4  12   2 1720.36 247.004   2
  -4  12   1 2251.09 256.598   2
  -4  12   0 2206.12 250.941   2
  -4  12  -1 2111.70 247.418   2
  -4  12  -2 2394.75 462.211   2
  -4  12  -3 1227.70 422.444   2
  -4  12  -5 1473.52 239.602   2
  -4  12  -6 869.886 289.142   2
  -4  12  -7 399.994 292.428   2
  -4  12  -8 1158.92 332.026   2
  -4  12  -9 1934.17 309.808   2
  -4  12 -10 1608.82 426.450   2
  -4  12 -11 792.997 355.309   2
  -4  12 -12 993.034 422.083   2
  -4  12 -13 1520.30 456.053   2
  -4  11  12 665.382 438.596   2
  -4  11  11 612.663 412.724   2
  -4  11  10 376.077 224.258   2
  -4  11   9 1725.66 424.465   2
  -4  11   8-2.67095 349.726   2
  -4  11   7 1840.53 284.181   2
  -4  11   6 596.875 224.839   2
  -4  11   5 2012.28 258.594   2
  -4  11   4 1634.62 240.340   2
  -4  11   3 3021.94 269.039   2
  -4  11   2 861.051 198.807   2
  -4  11   1 5263.41 298.174   2
  -4  11   0 405.719 175.717   2
  -4  11  -1 2348.74 226.424   2
  -4  11  -2 1069.05 182.652   2
  -4  11  -4 1677.56 244.510   2
  -4  11  -5 3387.51 297.003   2
  -4  11  -6 1798.95 328.657   2
  -4  11  -7 2009.81 352.977   2
  -4  11  -8 732.122 306.871   2
  -4  11  -9 1089.98 341.734   2
  -4  11 -10 3368.74 463.101   2
  -4  11 -11 1119.95 278.152   2
  -4  11 -12 1024.08 271.666   2
  -4  11 -13 1397.03 460.749   2
  -4  11 -14 185.235 438.330   2
  -4  10  13 399.970 375.274   2
  -4  10  12 1175.17 429.168   2
  -4  10  11 521.044 223.791   2
  -4  10  10 1247.05 242.441   2
  -4  10   9 133.612 206.884   2
  -4  10   8 1677.28 376.997   2
  -4  10   7 922.759 242.085   2
  -4  10   6 2685.72 266.756   2
  -4  10   5 2492.65 259.346   2
  -4  10   4 3322.27 262.814   2
  -4  10   3 2482.71 234.061   2
  -4  10   2 4348.40 268.097   2
  -4  10   1 3213.31 234.945   2
  -4  10   0 991.327 167.713   2
  -4  10  -1 1723.90 185.965   2
  -4  10  -2 4300.88 241.722   2
  -4  10  -3 6187.22 564.437   2
  -4  10  -4 4547.15 312.014   2
  -4  10  -5 2976.57 355.951   2
  -4  10  -6 1399.45 249.154   2
  -4  10  -7 998.073 314.994   2
  -4  10  -8 1889.04 245.344   2
  -4  10  -9 831.669 218.234   2
  -4  10 -10 1602.83 254.231   2
  -4  10 -11 1441.86 212.691   2
  -4  10 -12 644.907 211.505   2
  -4  10 -13 1793.37 477.736   2
  -4  10 -14 645.820 454.039   2
  -4  10 -15 774.993 442.570   2
  -4   9  12 588.750 350.904   2
  -4   9  11 1641.78 241.850   2
  -4   9  10 513.261 202.080   2
  -4   9   9 1290.70 219.208   2
  -4   9   8 587.795 195.088   2
  -4   9   7 2880.52 377.030   2
  -4   9   6 1172.78 214.541   2
  -4   9   5 3313.61 256.429   2
  -4   9   4 1656.21 206.337   2
  -4   9   3 6991.57 309.092   2
  -4   9   2 528.550 162.921   2
  -4   9   1 3773.58 222.823   2
  -4   9   0 4107.54 219.985   2
  -4   9  -1 5390.02 235.782   2
  -4   9  -2 1669.62 159.325   2
  -4   9  -3 4390.66 293.282   2
  -4   9  -4 1666.37 229.389   2
  -4   9  -5 4288.34 311.837   2
  -4   9  -6 5499.33 452.234   2
  -4   9  -7 1711.93 192.307   2
  -4   9  -8 991.871 225.020   2
  -4   9  -9 1336.16 195.810   2
  -4   9 -10 1332.56 199.822   2
  -4   9 -11 993.584 181.710   2
  -4   9 -12 1702.30 233.781   2
  -4   9 -13 728.368 285.920   2
  -4   9 -14 711.837 291.453   2
  -4   9 -15 1190.44 322.134   2
  -4   8  12 1666.78 290.491   2
  -4   8  11 1089.52 272.115   2
  -4   8  10 2248.31 240.415   2
  -4   8   9 676.782 189.438   2
  -4   8   8 1637.37 219.609   2
  -4   8   7 1088.24 191.352   2
  -4   8   6 3054.67 249.911   2
  -4   8   5 954.396 266.168   2
  -4   8   4 5265.72 272.721   2
  -4   8   3 2327.81 195.502   2
  -4   8   2 6562.65 257.755   2
  -4   8   1 1140.07 142.984   2
  -4   8   0 2806.31 167.839   2
  -4   8  -1 1026.58 122.349   2
  -4   8  -2 3358.19 151.316   2
  -4   8  -3 1470.99 213.555   2
  -4   8  -4 6201.28 329.004   2
  -4   8  -5 220.368 188.720   2
  -4   8  -6 2713.94 214.079   2
  -4   8  -7 2669.42 185.009   2
  -4   8  -8 2124.82 181.033   2
  -4   8  -9 148.524 145.123   2
  -4   8 -10 1710.25 211.744   2
  -4   8 -11 619.025 184.976   2
  -4   8 -12 1071.85 211.072   2
  -4   8 -13 1762.75 328.192   2
  -4   8 -14 819.927 309.400   2
  -4   8 -15 254.766 308.256   2
  -4   7  12-16.4943 229.311   2
  -4   7  11 1484.88 283.373   2
  -4   7  10 1329.78 274.107   2
  -4   7   9 3807.74 348.268   2
  -4   7   8 455.314 173.609   2
  -4   7   7 3183.76 244.507   2
  -4   7   6 293.681 158.156   2
  -4   7   5 8217.84 330.424   2
  -4   7   4 4169.90 254.993   2
  -4   7   3 4811.97 394.423   2
  -4   7   2 1314.81 277.741   2
  -4   7   1 10189.0 313.547   2
  -4   7   0 2764.38 163.922   2
  -4   7  -1 8484.75 192.462   2
  -4   7  -2 4832.80 129.402   2
  -4   7  -3 5984.31 310.572   2
  -4   7  -4 7062.58 274.926   2
  -4   7  -5 5076.43 209.777   2
  -4   7  -6 2868.45 183.532   2
  -4   7  -7 5501.93 230.995   2
  -4   7  -8 2979.61 194.175   2
  -4   7  -9 2560.52 191.776   2
  -4   7 -10 4708.07 273.227   2
  -4   7 -11 2064.79 221.597   2
  -4   7 -12 915.085 195.992   2
  -4   7 -13 1062.46 300.113   2
  -4   7 -14 1274.94 320.350   2
  -4   7 -15 1031.32 312.604   2
  -4   7 -16 228.654 293.785   2
  -4   6  17 474.085 386.256   2
  -4   6  16 979.845 448.783   2
  -4   6  12 3468.54 329.532   2
  -4   6  11 290.548 211.356   2
  -4   6  10 4178.45 352.027   2
  -4   6   9 1638.93 272.305   2
  -4   6   8 3181.15 334.594   2
  -4   6   7 765.401 166.313   2
  -4   6   6 4684.77 362.391   2
  -4   6   5 644.876 228.970   2
  -4   6   4 5471.73 256.132   2
  -4   6   3 3285.74 212.438   2
  -4   6   2 8859.52 308.679   2
  -4   6   1 411.768 140.469   2
  -4   6   0 3682.16 229.450   2
  -4   6  -1 1058.03 139.041   2
  -4   6  -2 4077.76 204.381   2
  -4   6  -3 1531.91 159.623   2
  -4   6  -4 5553.90 242.287   2
  -4   6  -5 669.287 154.204   2
  -4   6  -6 3378.54 186.562   2
  -4   6  -7 2182.00 174.899   2
  -4   6  -8 1424.25 187.708   2
  -4   6  -9 77.7982 157.416   2
  -4   6 -10 1018.77 187.392   2
  -4   6 -11 1335.05 194.683   2
  -4   6 -12 1303.74 286.053   2
  -4   6 -13 738.399 292.611   2
  -4   6 -14 355.527 295.793   2
  -4   6 -15 1012.41 328.066   2
  -4   6 -16 227.774 337.208   2
  -4   5  17 1244.35 456.961   2
  -4   5  16 493.066 382.024   2
  -4   5  15 679.887 377.854   2
  -4   5  13 1753.90 244.367   2
  -4   5  12 418.363 212.504   2
  -4   5  11 3996.66 328.453   2
  -4   5  10 2167.10 272.515   2
  -4   5   9 4141.05 345.039   2
  -4   5   8 135.701 199.308   2
  -4   5   7 3455.96 320.076   2
  -4   5   6 1669.34 168.076   2
  -4   5   5 5113.19 171.748   2
  -4   5   4 1347.28 109.098   2
  -4   5   3 17549.7 390.483   2
  -4   5   2 3235.29 195.286   2
  -4   5   1 8302.65 288.039   2
  -4   5   0 5806.89 260.420   2
  -4   5  -1 8504.62 251.840   2
  -4   5  -2 1253.14 137.630   2
  -4   5  -3 14629.0 289.016   2
  -4   5  -4 7764.85 148.419   2
  -4   5  -5 8762.74 200.799   2
  -4   5  -6 1676.94 128.647   2
  -4   5  -7 2586.55 204.037   2
  -4   5  -8 2544.21 209.965   2
  -4   5  -9 4525.84 254.367   2
  -4   5 -10 483.055 161.570   2
  -4   5 -11 3203.40 238.919   2
  -4   5 -12 933.061 288.234   2
  -4   5 -13 1041.63 303.463   2
  -4   5 -14 1610.90 339.809   2
  -4   5 -15 1282.29 338.972   2
  -4   5 -16 55.7459 318.780   2
  -4   4  18 1626.40 519.103   2
  -4   4  17 30.1726 401.928   2
  -4   4  16 2447.19 490.879   2
  -4   4  15 252.592 341.457   2
  -4   4  14 1747.52 412.771   2
  -4   4  13 879.810 231.822   2
  -4   4  12 4690.32 346.710   2
  -4   4  11 609.371 211.935   2
  -4   4  10 5895.91 375.719   2
  -4   4   9 1199.56 241.237   2
  -4   4   8 6584.62 392.094   2
  -4   4   7 865.082 219.208   2
  -4   4   6 6154.72 210.366   2
  -4   4   5 441.839 79.6651   2
  -4   4   4 8826.90 177.908   2
  -4   4   3 3382.89 180.030   2
  -4   4   2 12473.7 306.190   2
  -4   4   1 286.632 111.989   2
  -4   4   0 6717.78 247.207   2
  -4   4  -1 3217.98 163.508   2
  -4   4  -2 1024.48 110.213   2
  -4   4  -3 1106.62 118.171   2
  -4   4  -4 7006.72 177.469   2
  -4   4  -5 371.917 79.0989   2
  -4   4  -6 3976.62 174.394   2
  -4   4  -7 1830.21 184.911   2
  -4   4  -8 1335.47 182.807   2
  -4   4  -9 1095.06 172.799   2
  -4   4 -10 2063.09 203.702   2
  -4   4 -11 1948.54 192.563   2
  -4   4 -12 1575.70 308.157   2
  -4   4 -13 257.869 269.409   2
  -4   4 -14 515.760 306.787   2
  -4   4 -15 1254.72 338.452   2
  -4   4 -16 393.946 315.863   2
  -4   3  18 251.234 437.644   2
  -4   3  17 1060.49 453.294   2
  -4   3  16 1604.00 420.441   2
  -4   3  15 1439.09 407.069   2
  -4   3  14 55.1468 333.261   2
  -4   3  13 1003.19 184.667   2
  -4   3  12 1244.37 192.109   2
  -4   3  11 1506.89 247.252   2
  -4   3  10 444.087 201.585   2
  -4   3   9 7478.07 404.958   2
  -4   3   8 858.591 215.894   2
  -4   3   7 6834.34 218.424   2
  -4   3   6 815.546 97.7640   2
  -4   3   5 8403.46 153.477   2
  -4   3   4 1890.84 132.496   2
  -4   3   3 6914.68 206.978   2
  -4   3   2 8112.55 227.385   2
  -4   3   1 23490.2 369.833   2
  -4   3   0 533.596 91.4404   2
  -4   3  -1 10838.6 195.855   2
  -4   3  -2 6974.52 177.578   2
  -4   3  -3 9090.36 200.234   2
  -4   3  -4 8992.48 205.323   2
  -4   3  -5 11984.8 232.686   2
  -4   3  -6 1463.59 106.709   2
  -4   3  -7 6075.55 167.466   2
  -4   3  -8 4551.17 240.306   2
  -4   3  -9 3067.00 214.249   2
  -4   3 -10 2215.30 200.537   2
  -4   3 -11 2454.88 326.138   2
  -4   3 -12 921.936 281.320   2
  -4   3 -13 1433.72 310.890   2
  -4   3 -14 224.076 292.307   2
  -4   3 -15 888.836 333.439   2
  -4   2  19 138.056 430.572   2
  -4   2  18 2250.62 519.302   2
  -4   2  17 167.993 418.629   2
  -4   2  16 2089.95 458.400   2
  -4   2  15 502.109 356.784   2
  -4   2  14 2156.74 209.960   2
  -4   2  13 56.2606 158.031   2
  -4   2  12 6236.57 306.632   2
  -4   2  11 896.628 178.674   2
  -4   2  10 8114.47 330.039   2
  -4   2   9 6851.74 308.337   2
  -4   2   8 7512.27 235.451   2
  -4   2   7 292.960 92.5712   2
  -4   2   6 6541.34 169.019   2
  -4   2   5 424.518 194.903   2
  -4   2   4 9311.99 207.000   2
  -4   2   3 1156.72 88.1892   2
  -4   2   2 10656.2 174.678   2
  -4   2   1 530.648 215.983   2
  -4   2   0 9868.44 235.821   2
  -4   2  -1 161.495 77.6056   2
  -4   2  -2 3657.19 125.284   2
  -4   2  -3 72.3786 64.9721   2
  -4   2  -4 1986.48 95.6279   2
  -4   2  -5 5950.39 294.260   2
  -4   2  -6 8027.89 286.703   2
  -4   2  -7 300.442 148.050   2
  -4   2  -8 1185.74 167.450   2
  -4   2  -9 1855.40 185.355   2
  -4   2 -10 925.681 159.568   2
  -4   2 -11 1276.62 287.944   2
  -4   2 -12 2275.16 336.091   2
  -4   2 -13 192.404 294.352   2
  -4   2 -14 678.828 302.723   2
  -4   2 -15 1230.95 348.303   2
  -4   1  19 1327.84 492.855   2
  -4   1  18 28.1076 411.636   2
  -4   1  17 420.881 382.703   2
  -4   1  16-127.066 388.775   2
  -4   1  15 2898.43 479.032   2
  -4   1  14 872.576 191.779   2
  -4   1  13 1210.05 196.401   2
  -4   1  12 978.779 186.061   2
  -4   1  11 5689.38 291.073   2
  -4   1  10 307.431 162.203   2
  -4   1   9 7501.91 315.583   2
  -4   1   8 5947.95 190.335   2
  -4   1   7 9393.40 208.266   2
  -4   1   6 4049.11 129.086   2
  -4   1   5 10983.8 205.589   2
  -4   1   4 1916.84 175.946   2
  -4   1   3 18016.5 392.340   2
  -4   1   2 10369.1 292.718   2
  -4   1   1 11156.4 484.479   2
  -4   1   0 1621.88 116.356   2
  -4   1  -1 11101.9 201.836   2
  -4   1  -2 840.943 55.9515   2
  -4   1  -3 7805.97 265.535   2
  -4   1  -4 3753.82 206.417   2
  -4   1  -5 7773.27 281.374   2
  -4   1  -6 1745.95 177.730   2
  -4   1  -7 5705.72 254.160   2
  -4   1  -8 734.582 160.577   2
  -4   1  -9 1976.03 192.647   2
  -4   1 -10 386.970 148.484   2
  -4   1 -11 2133.81 317.006   2
  -4   1 -12 3186.15 372.807   2
  -4   1 -13 2646.48 373.673   2
  -4   1 -14 9.30355 304.108   2
  -4   1 -15 816.814 341.654   2
  -4   0  19 253.998 418.444   2
  -4   0  18 2819.97 529.164   2
  -4   0  17 31.2904 403.435   2
  -4   0  16 1502.19 397.098   2
  -4   0  15 1363.50 412.895   2
  -4   0  14 2531.15 234.906   2
  -4   0  13 593.159 182.191   2
  -4   0  12 2776.14 239.247   2
  -4   0  11 710.694 177.454   2
  -4   0  10 6049.14 299.679   2
  -4   0   9 90.4268 122.701   2
  -4   0   8 8377.71 200.462   2
  -4   0   7 664.375 91.9941   2
  -4   0   6 3315.57 103.511   2
  -4   0   5 66.9269 48.4350   2
  -4   0   4 7823.03 152.688   2
  -4   0   3 2875.60 105.217   2
  -4   0   2 6956.36 160.419   2
  -4   0   1 2099.89 107.969   2
  -4   0   0 13843.9 213.260   2
  -4   0  -1 302.823 63.9064   2
  -4   0  -2 6843.45 202.939   2
  -4   0  -3 499.121 110.063   2
  -4   0  -4 3280.33 190.204   2
  -4   0  -5 2023.24 159.798   2
  -4   0  -6 6183.76 261.850   2
  -4   0  -7 392.188 154.739   2
  -4   0  -8 7770.94 301.908   2
  -4   0  -9 2551.14 214.778   2
  -4   0 -10 1434.44 295.494   2
  -4   0 -11 1046.73 297.212   2
  -4   0 -12 1774.63 320.144   2
  -4   0 -13 221.339 306.992   2
  -4   0 -14 1089.78 364.589   2
  -4  -1  19 550.090 447.131   2
  -4  -1  16 491.747 376.082   2
  -4  -1  15 1601.75 216.724   2
  -4  -1  14 63.1879 166.152   2
  -4  -1  13 3877.32 275.685   2
  -4  -1  12 1180.96 155.083   2
  -4  -1  11 4648.69 224.729   2
  -4  -1  10 901.644 146.871   2
  -4  -1   9 8394.90 273.577   2
  -4  -1   8 3521.34 196.108   2
  -4  -1   7 16361.7 233.848   2
  -4  -1   6 1027.20 80.7082   2
  -4  -1   5 13466.5 184.856   2
  -4  -1   4 795.095 93.1988   2
  -4  -1   3 11647.4 224.169   2
  -4  -1   2 2904.65 130.461   2
  -4  -1   1 15316.0 261.154   2
  -4  -1   0 95.2269 71.6344   2
  -4  -1  -1 9553.86 173.482   2
  -4  -1  -2 2565.97 132.803   2
  -4  -1  -3 5501.07 194.988   2
  -4  -1  -4 922.612 120.570   2
  -4  -1  -5 2859.47 153.551   2
  -4  -1  -6 3954.06 176.552   2
  -4  -1  -7 5858.42 239.011   2
  -4  -1  -8 494.701 158.658   2
  -4  -1  -9 2307.64 211.272   2
  -4  -1 -10 339.001 254.727   2
  -4  -1 -11 442.966 271.212   2
  -4  -1 -12 1258.51 336.719   2
  -4  -1 -13 1915.46 367.106   2
  -4  -1 -14 232.472 319.409   2
  -4  -2  18 2734.39 544.692   2
  -4  -2  17 194.883 386.874   2
  -4  -2  16 2732.11 503.522   2
  -4  -2  15 368.973 177.464   2
  -4  -2  14 3114.19 205.584   2
  -4  -2  13 106.881 136.643   2
  -4  -2  12 3156.82 209.792   2
  -4  -2  11 156.676 130.591   2
  -4  -2  10 5216.81 239.026   2
  -4  -2   9 453.898 139.344   2
  -4  -2   8 6531.39 204.994   2
  -4  -2   7 470.816 84.1412   2
  -4  -2   6 4824.29 137.553   2
  -4  -2   5 401.656 70.0793   2
  -4  -2   4 4951.41 125.458   2
  -4  -2   3 1157.70 112.632   2
  -4  -2   2 11226.8 249.770   2
  -4  -2   1 2388.69 140.948   2
  -4  -2   0 3862.78 125.455   2
  -4  -2  -1 78.2879 65.9917   2
  -4  -2  -2 9914.26 150.169   2
  -4  -2  -3 52.7065 102.065   2
  -4  -2  -4 5660.81 191.725   2
  -4  -2  -5 3627.90 170.710   2
  -4  -2  -6 3367.36 169.651   2
  -4  -2  -7 83.0059 115.025   2
  -4  -2  -8 4275.74 192.380   2
  -4  -2  -9 734.495 159.907   2
  -4  -2 -10 3004.96 353.460   2
  -4  -2 -11 249.342 308.163   2
  -4  -2 -12 915.653 308.227   2
  -4  -2 -13 766.707 335.791   2
  -4  -3  19 347.048 476.241   2
  -4  -3  18 326.045 434.698   2
  -4  -3  17 2420.95 513.755   2
  -4  -3  16 319.510 395.592   2
  -4  -3  15 1482.74 179.857   2
  -4  -3  14 2260.62 199.670   2
  -4  -3  13 2161.47 197.480   2
  -4  -3  12 652.702 156.527   2
  -4  -3  11 7951.67 297.351   2
  -4  -3  10 150.762 144.969   2
  -4  -3   9 6858.93 227.409   2
  -4  -3   8 1481.62 141.022   2
  -4  -3   7 9832.07 248.760   2
  -4  -3   6 2632.54 120.488   2
  -4  -3   5 13792.5 235.713   2
  -4  -3   4 487.415 113.152   2
  -4  -3   3 13434.9 298.885   2
  -4  -3   2 478.561 113.772   2
  -4  -3   1 10207.6 232.417   2
  -4  -3   0 3593.47 143.586   2
  -4  -3  -1 7346.11 162.461   2
  -4  -3  -2 450.349 71.1662   2
  -4  -3  -3 5618.56 130.323   2
  -4  -3  -4 616.725 122.343   2
  -4  -3  -5 3409.63 170.766   2
  -4  -3  -6 3818.68 183.537   2
  -4  -3  -7 2660.33 169.456   2
  -4  -3  -8 298.444 130.486   2
  -4  -3  -9 2459.35 259.305   2
  -4  -3 -10 483.690 224.361   2
  -4  -3 -11 928.411 255.008   2
  -4  -3 -12 548.595 320.660   2
  -4  -4  19 501.034 477.501   2
  -4  -4  18 1207.81 527.295   2
  -4  -4  16 2232.74 326.665   2
  -4  -4  15 183.315 165.336   2
  -4  -4  14 1797.08 201.264   2
  -4  -4  13 568.844 169.866   2
  -4  -4  12 1900.12 197.954   2
  -4  -4  11 598.094 161.648   2
  -4  -4  10 5756.50 231.235   2
  -4  -4   9 1331.95 150.268   2
  -4  -4   8 6445.64 229.499   2
  -4  -4   7 229.248 120.385   2
  -4  -4   6 6048.53 182.821   2
  -4  -4   5 695.824 105.487   2
  -4  -4   4 5254.18 236.432   2
  -4  -4   3 1549.39 147.561   2
  -4  -4   2 5501.73 204.940   2
  -4  -4   1 147.079 102.630   2
  -4  -4   0 11215.1 230.495   2
  -4  -4  -1 413.353 83.6923   2
  -4  -4  -2 2465.32 114.767   2
  -4  -4  -3 650.648 84.3893   2
  -4  -4  -4 5609.81 205.741   2
  -4  -4  -5 102.120 118.269   2
  -4  -4  -6 3427.12 186.005   2
  -4  -4  -7 1452.17 157.022   2
  -4  -4  -8 2851.04 186.329   2
  -4  -4  -9 255.001 216.592   2
  -4  -4 -10 2915.98 299.189   2
  -4  -4 -11 452.947 250.714   2
  -4  -4 -12 1089.70 477.917   2
  -4  -5  18 266.406 477.404   2
  -4  -5  17 2491.76 551.034   2
  -4  -5  16 36.3258 227.899   2
  -4  -5  15 2114.32 300.375   2
  -4  -5  14 131.874 171.773   2
  -4  -5  13 2526.53 231.413   2
  -4  -5  12 595.621 180.453   2
  -4  -5  11 5063.46 279.209   2
  -4  -5  10 110.676 138.018   2
  -4  -5   9 6124.44 244.034   2
  -4  -5   8 61.8873 135.242   2
  -4  -5   7 6747.03 244.294   2
  -4  -5   6 606.865 104.517   2
  -4  -5   5 9616.56 274.933   2
  -4  -5   4 3636.53 189.844   2
  -4  -5   3 5865.26 221.336   2
  -4  -5   2 1459.90 140.225   2
  -4  -5   1 5871.82 213.892   2
  -4  -5   0 548.273 116.296   2
  -4  -5  -1 5892.95 182.907   2
  -4  -5  -2 1839.85 116.704   2
  -4  -5  -3 3439.39 175.775   2
  -4  -5  -4 560.206 131.333   2
  -4  -5  -5 2680.30 174.009   2
  -4  -5  -6 629.727 134.332   2
  -4  -5  -7 2116.33 196.856   2
  -4  -5  -8 239.075 211.918   2
  -4  -5  -9 1210.61 251.013   2
  -4  -5 -10 142.603 240.458   2
  -4  -5 -11 1213.06 285.676   2
  -4  -6  18 392.150 496.197   2
  -4  -6  17 112.910 495.516   2
  -4  -6  16 1861.99 313.260   2
  -4  -6  15 174.684 248.551   2
  -4  -6  14 2755.16 326.369   2
  -4  -6  13 155.107 239.329   2
  -4  -6  12 1282.52 193.278   2
  -4  -6  11 66.6605 187.386   2
  -4  -6  10 5127.92 245.127   2
  -4  -6   9 229.558 171.849   2
  -4  -6   8 4993.04 237.972   2
  -4  -6   7 761.212 164.070   2
  -4  -6   6 7628.23 271.154   2
  -4  -6   5 888.327 153.696   2
  -4  -6   4 5075.19 226.281   2
  -4  -6   3 473.511 134.819   2
  -4  -6   2 6423.57 235.379   2
  -4  -6   1 120.105 121.679   2
  -4  -6   0 5079.99 189.386   2
  -4  -6  -1 59.5156 104.890   2
  -4  -6  -2 6844.05 227.429   2
  -4  -6  -3 259.012 121.191   2
  -4  -6  -4 2722.01 193.813   2
  -4  -6  -5 106.581 144.329   2
  -4  -6  -6 2344.41 206.342   2
  -4  -6  -7 353.243 165.625   2
  -4  -6  -8 1698.62 254.585   2
  -4  -6  -9 149.128 316.736   2
  -4  -7  18 348.447 522.779   2
  -4  -7  17 1040.22 516.698   2
  -4  -7  16 167.906 270.875   2
  -4  -7  15 2333.10 336.797   2
  -4  -7  14 856.396 359.087   2
  -4  -7  13 2351.23 327.260   2
  -4  -7  12 593.153 343.304   2
  -4  -7  11 2436.48 249.811   2
  -4  -7  10-65.6973 189.338   2
  -4  -7   9 5857.35 272.507   2
  -4  -7   8 250.766 157.112   2
  -4  -7   7 2835.06 213.613   2
  -4  -7   6 126.031 149.155   2
  -4  -7   5 2839.64 204.643   2
  -4  -7   4 186.196 147.060   2
  -4  -7   3 7250.64 266.503   2
  -4  -7   2 952.911 152.345   2
  -4  -7   1 2574.92 185.965   2
  -4  -7   0 506.046 124.144   2
  -4  -7  -1 2389.45 171.128   2
  -4  -7  -2 120.708 168.364   2
  -4  -7  -3 2489.88 192.204   2
  -4  -7  -4 103.688 173.933   2
  -4  -7  -5 1990.81 238.253   2
  -4  -7  -6 456.460 203.460   2
  -4  -7  -7 2647.48 363.525   2
  -4  -7  -8 389.998 299.761   2
  -4  -8  17 163.079 533.611   2
  -4  -8  16 1851.48 452.852   2
  -4  -8  15 367.593 290.290   2
  -4  -8  14 1526.37 334.224   2
  -4  -8  13 396.158 264.211   2
  -4  -8  12 2143.13 344.402   2
  -4  -8  11-36.8984 270.196   2
  -4  -8  10 2155.67 335.666   2
  -4  -8   9 510.833 255.941   2
  -4  -8   8 4866.32 299.697   2
  -4  -8   7 218.079 180.598   2
  -4  -8   6 4959.07 296.314   2
  -4  -8   5 699.312 186.712   2
  -4  -8   4 5717.74 294.006   2
  -4  -8   3 108.672 162.727   2
  -4  -8   2 2294.14 214.642   2
  -4  -8   1 424.271 158.674   2
  -4  -8   0 4777.56 261.352   2
  -4  -8  -1 183.790 176.548   2
  -4  -8  -2 2790.98 248.828   2
  -4  -8  -3 762.044 201.605   2
  -4  -8  -4 2382.59 256.479   2
  -4  -8  -5 13.7356 206.953   2
  -4  -8  -6 1631.39 246.162   2
  -4  -8  -7 667.183 314.431   2
  -4  -9  16 125.973 297.345   2
  -4  -9  15 1226.49 429.299   2
  -4  -9  14-0.99259 423.754   2
  -4  -9  13 1862.11 464.618   2
  -4  -9  12 334.127 278.941   2
  -4  -9  11 1285.57 430.351   2
  -4  -9  10 140.932 366.725   2
  -4  -9   9 3025.98 337.390   2
  -4  -9   8 517.310 272.561   2
  -4  -9   7 4418.07 301.070   2
  -4  -9   6 224.840 199.830   2
  -4  -9   5 3083.18 262.471   2
  -4  -9   4 151.393 180.952   2
  -4  -9   3 1997.57 222.792   2
  -4  -9   2 214.205 187.024   2
  -4  -9   1 3104.60 249.369   2
  -4  -9   0 587.792 248.605   2
  -4  -9  -1 2279.06 246.847   2
  -4  -9  -2 99.1113 202.053   2
  -4  -9  -3 2038.27 257.902   2
  -4  -9  -4 299.244 209.995   2
  -4  -9  -5 1284.68 239.498   2
  -4 -10  15 98.9190 325.112   2
  -4 -10  14 1765.05 352.860   2
  -4 -10  13-22.0825 309.369   2
  -4 -10  12 1516.42 475.653   2
  -4 -10  11 405.004 295.264   2
  -4 -10  10 1747.02 335.341   2
  -4 -10   9 142.382 302.423   2
  -4 -10   8 2170.37 277.136   2
  -4 -10   7 198.534 214.544   2
  -4 -10   6 3668.91 299.315   2
  -4 -10   5 974.102 232.613   2
  -4 -10   4 2517.02 261.057   2
  -4 -10   3-33.2232 196.380   2
  -4 -10   2 4020.84 286.239   2
  -4 -10   1 271.412 265.079   2
  -4 -10   0 1861.13 323.088   2
  -4 -10  -1 302.436 264.826   2
  -4 -10  -2 2342.61 342.558   2
  -4 -10  -3-53.1630 289.138   2
  -4 -11  13 1713.69 299.650   2
  -4 -11  12 342.275 318.563   2
  -4 -11  11 1105.10 464.223   2
  -4 -11  10-32.1926 422.136   2
  -4 -11   9 1841.71 340.508   2
  -4 -11   8 176.359 240.584   2
  -4 -11   7 2363.73 280.643   2
  -4 -11   6 274.049 211.721   2
  -4 -11   5 2079.56 267.198   2
  -4 -11   4 259.579 219.881   2
  -4 -11   3 2690.64 279.582   2
  -4 -11   2 219.277 280.734   2
  -4 -11   1 1403.22 329.125   2
  -4 -11   0 355.444 301.772   2
  -4 -12   9 56.6414 256.981   2
  -4 -12   8 2023.47 299.602   2
  -4 -12   7 239.711 249.637   2
  -4 -12   6 1745.28 278.362   2
  -4 -12   5 29.3356 240.393   2
  -4 -12   4 1975.68 281.381   2
  -5  15   2-125.761 439.924   2
  -5  15   1 239.651 429.359   2
  -5  15   0 207.336 450.678   2
  -5  15  -1 565.947 481.826   2
  -5  15  -2-157.845 501.382   2
  -5  15  -3 990.655 508.854   2
  -5  15  -4-242.262 487.696   2
  -5  15  -5 557.328 497.554   2
  -5  15  -6 254.187 456.214   2
  -5  14   6 2491.94 501.680   2
  -5  14   5-126.071 424.536   2
  -5  14   4 2156.55 493.733   2
  -5  14   3 156.018 389.975   2
  -5  14   2 1477.67 462.007   2
  -5  14   1-51.3432 403.244   2
  -5  14   0 2636.02 527.562   2
  -5  14  -1 46.1827 425.469   2
  -5  14  -2 1682.17 516.815   2
  -5  14  -3 207.063 453.208   2
  -5  14  -4 2140.03 530.108   2
  -5  14  -5 360.468 461.993   2
  -5  14  -6 930.892 442.457   2
  -5  13   8 11.8934 256.836   2
  -5  13   7 1354.54 424.499   2
  -5  13   6 14.9033 366.273   2
  -5  13   5 747.269 365.828   2
  -5  13   4 126.526 332.364   2
  -5  13   3 1505.93 417.809   2
  -5  13   2 136.387 384.323   2
  -5  13   1 1144.46 418.511   2
  -5  13   0-137.298 404.801   2
  -5  13  -1 589.708 391.140   2
  -5  13  -2-278.949 395.332   2
  -5  13  -3 1812.86 483.634   2
  -5  13  -4 244.359 398.662   2
  -5  13  -5 590.443 425.254   2
  -5  13  -6 1153.85 449.526   2
  -5  13  -7 1244.24 444.679   2
  -5  13  -8-25.7708 255.710   2
  -5  13  -9 825.416 391.134   2
  -5  13 -10-59.3600 230.644   2
  -5  12  10 1391.92 286.792   2
  -5  12   9 90.9793 239.534   2
  -5  12   8 1884.59 299.573   2
  -5  12   7 272.779 244.039   2
  -5  12   6 2400.74 425.166   2
  -5  12   5-18.2483 326.543   2
  -5  12   4 2025.62 414.176   2
  -5  12   3-148.082 316.022   2
  -5  12   2 1891.56 412.789   2
  -5  12   1-93.0519 326.413   2
  -5  12   0 1454.38 401.089   2
  -5  12  -1 386.176 359.250   2
  -5  12  -2 44.3918 362.575   2
  -5  12  -3 191.379 353.922   2
  -5  12  -4 2037.36 445.910   2
  -5  12  -5-4.83397 219.742   2
  -5  12  -6 961.132 262.512   2
  -5  12  -7 342.108 250.436   2
  -5  12  -8 752.475 382.263   2
  -5  12  -9 189.421 214.112   2
  -5  12 -10 1421.99 305.995   2
  -5  12 -11 364.884 232.933   2
  -5  12 -12 1259.61 483.944   2
  -5  11  11 1683.51 287.330   2
  -5  11  10 83.3889 240.953   2
  -5  11   9 1040.21 268.544   2
  -5  11   8 36.6739 225.148   2
  -5  11   7 1101.48 252.190   2
  -5  11   6 19.7746 218.520   2
  -5  11   5 2052.66 398.709   2
  -5  11   4 403.373 189.728   2
  -5  11   3 1231.96 331.830   2
  -5  11   2 9.80611 296.773   2
  -5  11   1 760.493 337.258   2
  -5  11   0 51.0974 299.186   2
  -5  11  -1 2950.43 473.966   2
  -5  11  -2 81.6408 325.141   2
  -5  11  -3 1669.60 412.660   2
  -5  11  -4 528.598 215.468   2
  -5  11  -5 2353.71 288.196   2
  -5  11  -6 344.173 191.593   2
  -5  11  -7 1956.78 240.865   2
  -5  11  -8 3.46480 201.383   2
  -5  11  -9 488.959 210.910   2
  -5  11 -10 33.6833 266.403   2
  -5  11 -11 1346.32 259.415   2
  -5  11 -12 106.821 267.729   2
  -5  10  13 10.0905 409.536   2
  -5  10  12 1634.75 428.452   2
  -5  10  11 531.709 229.570   2
  -5  10  10 2189.70 280.233   2
  -5  10   9 253.139 209.251   2
  -5  10   8 1314.94 242.485   2
  -5  10   7 78.0735 205.122   2
  -5  10   6 4189.80 320.051   2
  -5  10   5 252.501 195.014   2
  -5  10   4 2769.32 272.202   2
  -5  10   3 366.328 208.982   2
  -5  10   2 1227.48 224.435   2
  -5  10   1-193.795 265.633   2
  -5  10   0 5145.88 476.046   2
  -5  10  -1 283.258 285.095   2
  -5  10  -2 2377.09 409.740   2
  -5  10  -3 1474.47 259.003   2
  -5  10  -4 1688.69 211.314   2
  -5  10  -5 237.677 175.278   2
  -5  10  -6 667.996 190.640   2
  -5  10  -7 92.0096 179.282   2
  -5  10  -8 2292.82 251.339   2
  -5  10  -9 592.850 197.381   2
  -5  10 -10 2018.15 215.066   2
  -5  10 -11 221.564 208.586   2
  -5  10 -12 1402.53 257.848   2
  -5  10 -13 424.283 295.809   2
  -5   9  14 441.487 377.159   2
  -5   9  13 1718.91 422.284   2
  -5   9  12 327.461 215.699   2
  -5   9  11 2284.84 277.327   2
  -5   9  10 482.612 209.056   2
  -5   9   9 2183.04 261.538   2
  -5   9   8 214.781 192.389   2
  -5   9   7 1455.30 224.761   2
  -5   9   6 465.322 193.699   2
  -5   9   5 2342.52 241.199   2
  -5   9   4 231.691 185.676   2
  -5   9   3 3267.71 268.479   2
  -5   9   2 945.782 212.642   2
  -5   9   1 560.513 198.353   2
  -5   9   0 1090.65 226.937   2
  -5   9  -1 556.666 208.539   2
  -5   9  -2 275.880 211.150   2
  -5   9  -3 1163.20 187.384   2
  -5   9  -4 374.320 165.293   2
  -5   9  -5 2027.70 211.938   2
  -5   9  -6 715.059 182.990   2
  -5   9  -7 1217.37 171.457   2
  -5   9  -8 208.539 152.980   2
  -5   9  -9 1045.81 204.279   2
  -5   9 -10 222.395 169.753   2
  -5   9 -11 2471.50 271.974   2
  -5   9 -12-96.7107 267.531   2
  -5   9 -13 845.438 323.330   2
  -5   9 -14 525.729 315.567   2
  -5   8  12 2480.10 271.068   2
  -5   8  11 503.471 206.566   2
  -5   8  10 2350.29 253.726   2
  -5   8   9 954.935 205.074   2
  -5   8   8 2521.03 246.625   2
  -5   8   7 66.7142 181.114   2
  -5   8   6 2261.75 237.319   2
  -5   8   5 291.083 170.502   2
  -5   8   4 2177.70 233.490   2
  -5   8   3-10.2096 164.444   2
  -5   8   2 3557.48 279.022   2
  -5   8   1 816.478 198.774   2
  -5   8   0 696.923 199.700   2
  -5   8  -1-0.98935 197.885   2
  -5   8  -2 3637.83 238.005   2
  -5   8  -3 249.962 156.270   2
  -5   8  -4 5478.84 276.378   2
  -5   8  -5 458.313 161.039   2
  -5   8  -6 1753.03 180.251   2
  -5   8  -7 3.56153 142.925   2
  -5   8  -8 2411.07 207.454   2
  -5   8  -9 129.307 195.384   2
  -5   8 -10 2311.18 247.294   2
  -5   8 -11 189.092 204.284   2
  -5   8 -12 3361.16 393.321   2
  -5   8 -13 81.8655 305.472   2
  -5   8 -14 1634.63 358.461   2
  -5   7  12 439.206 252.988   2
  -5   7  11 2635.33 351.208   2
  -5   7  10 971.045 194.509   2
  -5   7   9 2732.00 247.850   2
  -5   7   8 911.947 183.698   2
  -5   7   7 2404.93 226.884   2
  -5   7   6 960.032 185.091   2
  -5   7   5 2706.11 228.128   2
  -5   7   4 1414.33 306.636   2
  -5   7   3 2496.38 351.378   2
  -5   7   2 800.180 293.701   2
  -5   7   1 2869.03 372.088   2
  -5   7   0 793.915 287.675   2
  -5   7  -1 5393.19 465.164   2
  -5   7  -2 1237.25 223.158   2
  -5   7  -3 1371.11 238.572   2
  -5   7  -4 113.556 159.597   2
  -5   7  -5 4249.10 221.693   2
  -5   7  -6 214.318 135.882   2
  -5   7  -7 1858.48 182.219   2
  -5   7  -8 234.095 177.999   2
  -5   7  -9 2203.26 235.056   2
  -5   7 -10 684.533 205.429   2
  -5   7 -11 2184.50 257.569   2
  -5   7 -12 42.9454 300.548   2
  -5   7 -13 1904.82 366.930   2
  -5   7 -14 13.5197 322.931   2
  -5   6  16 1050.87 452.507   2
  -5   6  13 34.5564 223.198   2
  -5   6  12 2302.84 322.072   2
  -5   6  11 354.585 234.734   2
  -5   6  10 1928.85 321.980   2
  -5   6   9 996.074 191.525   2
  -5   6   8 1828.99 206.501   2
  -5   6   7 172.511 149.325   2
  -5   6   6 2798.84 348.952   2
  -5   6   5 993.562 169.247   2
  -5   6   4 2231.90 197.219   2
  -5   6   3 572.612 152.005   2
  -5   6   2 3145.02 224.165   2
  -5   6   1 109.096 151.704   2
  -5   6   0 1210.14 185.955   2
  -5   6  -1 434.594 159.118   2
  -5   6  -2 3561.91 205.750   2
  -5   6  -3 368.494 191.956   2
  -5   6  -4 1347.34 191.060   2
  -5   6  -5 139.434 130.462   2
  -5   6  -6 2916.20 233.441   2
  -5   6  -7 522.416 179.530   2
  -5   6  -8 3995.47 267.372   2
  -5   6  -9 342.673 181.519   2
  -5   6 -10 1681.98 227.914   2
  -5   6 -11 148.929 192.769   2
  -5   6 -12 3843.02 396.986   2
  -5   6 -13-37.4468 309.716   2
  -5   6 -14 1273.64 345.994   2
  -5   5  17 2821.02 528.862   2
  -5   5  16 541.647 401.429   2
  -5   5  15 1670.33 467.327   2
  -5   5  13 2696.39 322.890   2
  -5   5  12 808.598 257.958   2
  -5   5  11 4117.27 373.773   2
  -5   5  10 1004.74 265.070   2
  -5   5   9 4278.57 388.406   2
  -5   5   8 3357.06 354.084   2
  -5   5   7 2130.42 312.134   2
  -5   5   6 782.307 93.7877   2
  -5   5   5 5383.58 246.986   2
  -5   5   4 1962.88 173.153   2
  -5   5   3 2328.58 183.097   2
  -5   5   2 1731.58 178.211   2
  -5   5   1 3872.91 228.700   2
  -5   5   0 690.209 151.025   2
  -5   5  -1 608.763 127.329   2
  -5   5  -2 891.446 145.946   2
  -5   5  -3 2323.34 180.981   2
  -5   5  -4 123.003 156.396   2
  -5   5  -5 6082.46 289.350   2
  -5   5  -6 126.669 159.210   2
  -5   5  -7 1159.33 192.363   2
  -5   5  -8 211.436 173.385   2
  -5   5  -9 3274.38 251.870   2
  -5   5 -10 597.664 186.200   2
  -5   5 -11 1690.19 331.074   2
  -5   5 -12 320.328 301.856   2
  -5   5 -13 1793.30 363.383   2
  -5   5 -14 380.174 320.493   2
  -5   4  17 427.649 433.038   2
  -5   4  16 882.263 431.635   2
  -5   4  15 229.879 369.985   2
  -5   4  14 1796.59 234.172   2
  -5   4  13 392.421 201.755   2
  -5   4  12 3144.53 340.901   2
  -5   4  11 244.836 227.346   2
  -5   4  10 2334.29 329.486   2
  -5   4   9 266.108 232.945   2
  -5   4   8 5016.31 408.357   2
  -5   4   7 2139.06 112.246   2
  -5   4   6 3143.26 109.632   2
  -5   4   5 646.736 117.474   2
  -5   4   4 3131.81 179.767   2
  -5   4   3 254.024 109.149   2
  -5   4   2 3021.83 181.587   2
  -5   4   1 1531.17 145.331   2
  -5   4   0 1771.49 151.134   2
  -5   4  -1 311.832 105.579   2
  -5   4  -2 4526.21 306.372   2
  -5   4  -3 1861.53 197.069   2
  -5   4  -4 2709.99 218.626   2
  -5   4  -5 205.361 162.076   2
  -5   4  -6 5626.53 281.657   2
  -5   4  -7 213.251 169.752   2
  -5   4  -8 2112.54 222.160   2
  -5   4  -9 1454.29 206.088   2
  -5   4 -10 1982.15 228.989   2
  -5   4 -11 436.430 284.534   2
  -5   4 -12 3565.88 403.440   2
  -5   4 -13 546.499 308.056   2
  -5   4 -14 1271.39 347.090   2
  -5   3  18 1123.55 484.486   2
  -5   3  17 1613.18 479.632   2
  -5   3  16 491.035 431.448   2
  -5   3  15 2982.87 521.132   2
  -5   3  14 1467.30 231.823   2
  -5   3  13 1564.03 230.576   2
  -5   3  12 1146.31 217.174   2
  -5   3  11 2670.48 256.197   2
  -5   3  10 3125.54 353.119   2
  -5   3   9 1833.78 309.479   2
  -5   3   8 1654.63 128.780   2
  -5   3   7 1119.83 89.4296   2
  -5   3   6 682.234 116.539   2
  -5   3   5 2773.94 152.966   2
  -5   3   4 4302.50 167.808   2
  -5   3   3 974.703 105.083   2
  -5   3   2 1061.64 95.0342   2
  -5   3   1 6975.87 456.017   2
  -5   3   0 1001.24 256.029   2
  -5   3  -1 5550.61 308.847   2
  -5   3  -2 1567.81 126.509   2
  -5   3  -3 2637.70 137.310   2
  -5   3  -4 413.057 94.1654   2
  -5   3  -5 2996.84 229.912   2
  -5   3  -6 1.71551 163.183   2
  -5   3  -7 4926.86 271.248   2
  -5   3  -8 693.315 180.717   2
  -5   3  -9 5587.22 293.323   2
  -5   3 -10 236.912 182.563   2
  -5   3 -11 1431.82 335.475   2
  -5   3 -12 304.559 303.686   2
  -5   3 -13 3179.22 401.793   2
  -5   3 -14 120.439 313.006   2
  -5   2  18 1391.99 481.184   2
  -5   2  17 1678.49 512.594   2
  -5   2  16 1381.99 450.177   2
  -5   2  15 1398.14 435.795   2
  -5   2  14 1480.53 235.454   2
  -5   2  13 531.307 197.998   2
  -5   2  12 3427.50 280.976   2
  -5   2  11 418.227 182.927   2
  -5   2  10 4628.01 297.482   2
  -5   2   9 540.289 181.442   2
  -5   2   8 3639.06 141.610   2
  -5   2   7 1717.15 217.122   2
  -5   2   6 3606.10 143.415   2
  -5   2   5 313.026 73.1674   2
  -5   2   4 7882.92 482.938   2
  -5   2   3 1254.27 266.302   2
  -5   2   2 753.603 240.011   2
  -5   2   1 2089.85 319.072   2
  -5   2   0 1445.30 278.582   2
  -5   2  -1 20.5699 185.784   2
  -5   2  -2 3212.62 109.886   2
  -5   2  -3 2529.31 85.1536   2
  -5   2  -4 458.714 162.087   2
  -5   2  -5 875.585 183.508   2
  -5   2  -6 2769.89 221.182   2
  -5   2  -7 270.940 167.965   2
  -5   2  -8 2562.59 227.731   2
  -5   2  -9 685.536 186.108   2
  -5   2 -10 1731.65 315.095   2
  -5   2 -11 275.443 275.046   2
  -5   2 -12 914.315 326.264   2
  -5   2 -13 409.301 321.300   2
  -5   1  19 1275.85 516.936   2
  -5   1  18 793.524 474.808   2
  -5   1  17 1967.90 500.171   2
  -5   1  16 1609.49 455.947   2
  -5   1  15 1507.11 240.496   2
  -5   1  14 1507.60 235.151   2
  -5   1  13 1924.99 242.900   2
  -5   1  12 412.869 195.837   2
  -5   1  11 2572.58 256.216   2
  -5   1  10 1332.47 218.983   2
  -5   1   9 2295.22 233.918   2
  -5   1   8 3247.16 138.264   2
  -5   1   7 2146.30 63.1138   2
  -5   1   6 676.379 87.4047   2
  -5   1   5 927.840 176.430   2
  -5   1   4 446.439 156.612   2
  -5   1   3 2664.44 203.542   2
  -5   1   2 821.339 259.986   2
  -5   1   1 3558.14 202.079   2
  -5   1   0 1472.67 145.837   2
  -5   1  -1 1340.22 122.179   2
  -5   1  -2 154.777 52.5158   2
  -5   1  -3 10935.4 346.923   2
  -5   1  -4 1189.65 186.572   2
  -5   1  -5 3970.39 244.972   2
  -5   1  -6 95.4141 157.914   2
  -5   1  -7 3668.80 246.269   2
  -5   1  -8 298.404 173.921   2
  -5   1  -9 6314.92 307.418   2
  -5   1 -10 803.938 305.219   2
  -5   1 -11 2941.72 403.947   2
  -5   1 -12 574.706 324.717   2
  -5   1 -13 2504.07 399.427   2
  -5   0  19 650.885 483.854   2
  -5   0  18 1528.16 495.476   2
  -5   0  17 1402.90 473.442   2
  -5   0  16 1604.59 465.341   2
  -5   0  15 667.060 218.619   2
  -5   0  14 1945.33 256.587   2
  -5   0  13 2071.98 258.069   2
  -5   0  12 3168.93 267.077   2
  -5   0  11 781.650 204.803   2
  -5   0  10 3686.38 281.447   2
  -5   0   9 700.523 147.862   2
  -5   0   8 3469.78 102.887   2
  -5   0   7 2058.03 91.2306   2
  -5   0   6 598.198 50.9075   2
  -5   0   5 332.981 61.3225   2
  -5   0   4 3599.64 118.037   2
  -5   0   3 2682.67 117.739   2
  -5   0   2 1523.05 108.913   2
  -5   0   1 2341.62 118.501   2
  -5   0   0 3636.57 139.106   2
  -5   0  -1 875.266 86.7720   2
  -5   0  -2 1080.92 123.671   2
  -5   0  -3 2551.64 175.798   2
  -5   0  -4 3339.36 235.424   2
  -5   0  -5 1576.36 201.003   2
  -5   0  -6 2836.84 235.308   2
  -5   0  -7 399.436 177.325   2
  -5   0  -8 1350.05 205.818   2
  -5   0  -9 935.089 204.826   2
  -5   0 -10 4391.83 425.232   2
  -5   0 -11 395.747 310.520   2
  -5   0 -12 1577.78 361.786   2
  -5  -1  19 1605.85 520.996   2
  -5  -1  18 1841.23 536.912   2
  -5  -1  17 1564.37 479.003   2
  -5  -1  16 1647.20 442.824   2
  -5  -1  15 1438.92 244.514   2
  -5  -1  14 1546.70 243.696   2
  -5  -1  13 676.011 214.264   2
  -5  -1  12 1069.88 174.798   2
  -5  -1  11 2024.47 197.865   2
  -5  -1  10 1232.62 173.747   2
  -5  -1   9 589.438 113.892   2
  -5  -1   8 691.468 105.057   2
  -5  -1   7 2939.09 109.978   2
  -5  -1   6 1595.56 73.4890   2
  -5  -1   5 1730.39 109.248   2
  -5  -1   4 89.9179 76.7624   2
  -5  -1   3 2740.56 164.551   2
  -5  -1   2 762.137 95.4670   2
  -5  -1   1 3653.49 146.963   2
  -5  -1   0 977.238 106.204   2
  -5  -1  -1 3367.50 99.0420   2
  -5  -1  -2 592.851 116.952   2
  -5  -1  -3 3834.76 178.109   2
  -5  -1  -4 1436.63 141.410   2
  -5  -1  -5 1851.67 152.071   2
  -5  -1  -6 422.796 152.704   2
  -5  -1  -7 4256.90 277.169   2
  -5  -1  -8 122.422 187.348   2
  -5  -1  -9 2248.86 331.309   2
  -5  -1 -10 436.041 293.643   2
  -5  -1 -11 3572.60 407.964   2
  -5  -1 -12 276.471 325.210   2
  -5  -2  19 952.475 488.772   2
  -5  -2  18 1299.93 479.937   2
  -5  -2  17 1239.48 479.404   2
  -5  -2  16 1543.76 465.783   2
  -5  -2  15 1608.42 268.869   2
  -5  -2  14 2426.62 220.227   2
  -5  -2  13 1695.51 201.543   2
  -5  -2  12 1151.41 180.791   2
  -5  -2  11 1103.79 180.262   2
  -5  -2  10 4125.22 191.961   2
  -5  -2   9 1271.42 134.816   2
  -5  -2   8 909.803 118.748   2
  -5  -2   7 3426.58 123.903   2
  -5  -2   6 2696.79 103.317   2
  -5  -2   5 1378.32 117.711   2
  -5  -2   4 2802.42 142.947   2
  -5  -2   3 954.599 127.842   2
  -5  -2   2 1552.00 123.298   2
  -5  -2   1 3233.30 155.004   2
  -5  -2   0 2382.81 135.570   2
  -5  -2  -1 1436.28 96.8199   2
  -5  -2  -2 1588.23 139.729   2
  -5  -2  -3 268.960 116.833   2
  -5  -2  -4 3113.11 174.343   2
  -5  -2  -5 2000.65 164.818   2
  -5  -2  -6 2095.72 168.625   2
  -5  -2  -7 1057.47 152.024   2
  -5  -2  -8 2663.31 224.984   2
  -5  -2  -9 321.544 283.953   2
  -5  -2 -10 3697.11 407.007   2
  -5  -2 -11 889.918 338.278   2
  -5  -3  19 334.642 487.638   2
  -5  -3  18 733.526 472.796   2
  -5  -3  17 768.891 454.802   2
  -5  -3  16 1777.77 219.253   2
  -5  -3  15 918.372 188.485   2
  -5  -3  14 468.589 178.859   2
  -5  -3  13 1094.29 194.126   2
  -5  -3  12 922.626 180.602   2
  -5  -3  11 604.771 138.011   2
  -5  -3  10 484.038 127.881   2
  -5  -3   9 3163.40 182.361   2
  -5  -3   8 1202.30 135.481   2
  -5  -3   7 3020.54 167.885   2
  -5  -3   6 1521.59 137.603   2
  -5  -3   5 468.432 109.992   2
  -5  -3   4 100.680 107.101   2
  -5  -3   3 5965.97 209.018   2
  -5  -3   2 34.5593 104.822   2
  -5  -3   1 1348.69 129.927   2
  -5  -3   0 1634.75 127.255   2
  -5  -3  -1 2806.17 161.396   2
  -5  -3  -2 123.076 121.335   2
  -5  -3  -3 4592.91 199.382   2
  -5  -3  -4 337.637 126.826   2
  -5  -3  -5 2060.95 168.197   2
  -5  -3  -6 968.244 149.530   2
  -5  -3  -7 2667.64 192.916   2
  -5  -3  -8 408.214 228.103   2
  -5  -3  -9 2125.27 284.483   2
  -5  -3 -10 335.512 303.988   2
  -5  -4  18 1094.25 494.228   2
  -5  -4  17 1400.73 501.486   2
  -5  -4  16 1022.52 211.482   2
  -5  -4  15 1329.26 214.110   2
  -5  -4  14 2148.70 237.428   2
  -5  -4  13 1662.86 186.320   2
  -5  -4  12 823.790 154.918   2
  -5  -4  11 1677.67 173.991   2
  -5  -4  10 1321.78 157.733   2
  -5  -4   9 1696.45 159.967   2
  -5  -4   8 1660.33 157.524   2
  -5  -4   7 745.377 136.176   2
  -5  -4   6 263.868 126.704   2
  -5  -4   5 1833.87 153.756   2
  -5  -4   4 843.394 134.947   2
  -5  -4   3 3126.51 178.510   2
  -5  -4   2 2162.10 157.966   2
  -5  -4   1 772.231 121.675   2
  -5  -4   0 1973.50 142.831   2
  -5  -4  -1 2163.30 179.690   2
  -5  -4  -2 734.976 132.575   2
  -5  -4  -3 714.517 134.598   2
  -5  -4  -4 3417.83 195.071   2
  -5  -4  -5 955.658 155.300   2
  -5  -4  -6 2155.12 186.343   2
  -5  -4  -7 1528.74 175.971   2
  -5  -4  -8 2215.45 281.274   2
  -5  -4  -9 394.968 253.422   2
  -5  -5  18 215.936 496.832   2
  -5  -5  17 288.140 463.346   2
  -5  -5  16 842.879 223.709   2
  -5  -5  15 259.313 199.870   2
  -5  -5  14 956.519 181.213   2
  -5  -5  13 2292.55 206.466   2
  -5  -5  12 953.607 171.304   2
  -5  -5  11 500.461 149.767   2
  -5  -5  10 843.656 157.580   2
  -5  -5   9 1041.63 162.950   2
  -5  -5   8 351.580 143.735   2
  -5  -5   7 3460.83 203.917   2
  -5  -5   6 3050.70 197.573   2
  -5  -5   5 3185.08 194.365   2
  -5  -5   4 905.924 145.910   2
  -5  -5   3 2471.56 171.844   2
  -5  -5   2 228.989 128.550   2
  -5  -5   1 1871.60 155.963   2
  -5  -5   0 1067.99 181.458   2
  -5  -5  -1 3309.27 208.502   2
  -5  -5  -2 500.071 152.429   2
  -5  -5  -3 1922.07 170.722   2
  -5  -5  -4 331.002 143.644   2
  -5  -5  -5 1777.71 185.402   2
  -5  -5  -6 737.353 163.858   2
  -5  -5  -7 2125.11 199.000   2
  -5  -5  -8 606.428 259.032   2
  -5  -6  17 1139.09 510.878   2
  -5  -6  16 516.765 289.299   2
  -5  -6  15 1189.85 322.243   2
  -5  -6  14 763.921 231.922   2
  -5  -6  13 592.084 214.880   2
  -5  -6  12 821.831 180.824   2
  -5  -6  11 866.152 175.718   2
  -5  -6  10 766.185 170.799   2
  -5  -6   9 2031.52 194.914   2
  -5  -6   8 553.754 158.191   2
  -5  -6   7 1445.92 173.475   2
  -5  -6   6 2396.17 193.266   2
  -5  -6   5 544.926 144.693   2
  -5  -6   4 167.981 142.641   2
  -5  -6   3 937.978 153.544   2
  -5  -6   2 1268.47 156.382   2
  -5  -6   1 1000.66 182.355   2
  -5  -6   0 987.656 194.202   2
  -5  -6  -1 1287.42 183.803   2
  -5  -6  -2 1438.16 185.794   2
  -5  -6  -3 601.164 153.572   2
  -5  -6  -4 2761.24 203.644   2
  -5  -6  -5 584.559 182.402   2
  -5  -6  -6 1024.92 229.669   2
  -5  -6  -7 749.511 326.109   2
  -5  -7  17 607.674 304.368   2
  -5  -7  16 946.850 251.275   2
  -5  -7  15 340.399 299.530   2
  -5  -7  14 1050.72 324.310   2
  -5  -7  13 735.632 225.289   2
  -5  -7  12 1276.68 205.424   2
  -5  -7  11 532.121 178.781   2
  -5  -7  10 520.222 171.488   2
  -5  -7   9 618.797 174.768   2
  -5  -7   8 988.031 187.135   2
  -5  -7   7 625.354 161.359   2
  -5  -7   6 386.455 155.167   2
  -5  -7   5 789.777 164.167   2
  -5  -7   4 1012.70 167.238   2
  -5  -7   3 1319.50 173.082   2
  -5  -7   2 672.691 152.923   2
  -5  -7   1 968.415 208.927   2
  -5  -7   0 118.764 184.698   2
  -5  -7  -1 1219.39 226.397   2
  -5  -7  -2 1262.15 200.868   2
  -5  -7  -3 1379.19 229.945   2
  -5  -7  -4 512.873 220.406   2
  -5  -7  -5 2090.22 266.765   2
  -5  -7  -6 660.367 244.233   2
  -5  -8  16 287.765 332.730   2
  -5  -8  15 832.985 329.269   2
  -5  -8  14 337.240 303.981   2
  -5  -8  13 816.427 313.981   2
  -5  -8  12 1007.31 242.170   2
  -5  -8  11 407.820 226.361   2
  -5  -8  10 682.188 220.636   2
  -5  -8   9 1206.27 203.183   2
  -5  -8   8 383.230 182.914   2
  -5  -8   7 589.092 184.543   2
  -5  -8   6 720.984 178.965   2
  -5  -8   5 1147.76 186.822   2
  -5  -8   4 453.770 168.328   2
  -5  -8   3 1460.53 188.355   2
  -5  -8   2 1528.63 280.835   2
  -5  -8   1 1471.83 279.513   2
  -5  -8   0 997.272 264.506   2
  -5  -8  -1 803.125 273.936   2
  -5  -8  -2 1030.47 221.265   2
  -5  -8  -3 1405.58 243.870   2
  -5  -8  -4 1242.28 251.997   2
  -5  -9  14 948.763 265.557   2
  -5  -9  13 663.175 249.634   2
  -5  -9  12 874.176 248.650   2
  -5  -9  11 299.287 239.275   2
  -5  -9  10 369.643 231.862   2
  -5  -9   9 372.207 217.392   2
  -5  -9   8 751.241 224.321   2
  -5  -9   7 323.467 202.943   2
  -5  -9   6 329.417 210.872   2
  -5  -9   5 2237.05 254.185   2
  -5  -9   4 284.556 190.567   2
  -5  -9   3 152.564 248.717   2
  -5  -9   2 395.584 254.836   2
  -5  -9   1 676.062 268.167   2
  -5  -9   0 403.557 276.991   2
  -5  -9  -1 1153.32 290.033   2
  -5  -9  -2 216.778 269.545   2
  -5 -10  12 292.742 247.891   2
  -5 -10  11 801.553 247.465   2
  -5 -10  10 769.942 247.763   2
  -5 -10   9 751.529 238.419   2
  -5 -10   8 553.930 236.105   2
  -5 -10   7 1293.81 248.236   2
  -5 -10   6 541.584 217.938   2
  -5 -10   5 630.367 206.961   2
  -5 -10   4 891.560 275.814   2
  -5 -10   3 519.519 280.814   2
  -5 -10   2 85.7711 280.718   2
  -5 -10   1 1483.64 313.585   2
  -6  14   4 1008.03 307.951   2
  -6  14   3 945.162 310.729   2
  -6  14   2 774.208 301.086   2
  -6  14   1 303.297 277.870   2
  -6  14   0 1313.78 481.463   2
  -6  14  -1 911.898 309.504   2
  -6  14  -2 1115.91 322.698   2
  -6  14  -3 490.461 295.248   2
  -6  14  -4 1364.06 314.882   2
  -6  14  -5 452.226 302.683   2
  -6  14  -6 1534.97 344.692   2
  -6  13   7 920.613 291.428   2
  -6  13   6 1297.90 302.769   2
  -6  13   5 937.473 293.911   2
  -6  13   4 283.894 274.281   2
  -6  13   3 451.372 254.651   2
  -6  13   2 182.095 272.843   2
  -6  13   1 702.955 273.613   2
  -6  13   0 1426.54 320.699   2
  -6  13  -1 998.408 315.553   2
  -6  13  -2 1054.09 315.363   2
  -6  13  -3 1222.83 311.720   2
  -6  13  -4 34.3940 278.556   2
  -6  13  -5 553.479 280.652   2
  -6  13  -6 371.098 279.290   2
  -6  13  -7 877.338 244.563   2
  -6  13  -8 558.112 237.394   2
  -6  12   9 1201.42 288.565   2
  -6  12   8 306.184 258.184   2
  -6  12   7 747.161 273.327   2
  -6  12   6 1566.40 293.849   2
  -6  12   5 1215.82 289.747   2
  -6  12   4 1149.25 273.144   2
  -6  12   3 1253.80 288.256   2
  -6  12   2 900.721 274.413   2
  -6  12   1 976.909 268.515   2
  -6  12   0 1376.52 303.345   2
  -6  12  -1 552.541 272.872   2
  -6  12  -2 1659.70 308.079   2
  -6  12  -3 272.790 258.070   2
  -6  12  -4 563.362 280.914   2
  -6  12  -5 742.742 288.172   2
  -6  12  -6 1218.47 248.431   2
  -6  12  -7 249.020 218.019   2
  -6  12  -8 630.453 229.163   2
  -6  12  -9 643.741 254.209   2
  -6  11  11 897.253 422.860   2
  -6  11  10 848.145 262.007   2
  -6  11   9 906.515 261.384   2
  -6  11   8 1086.38 257.595   2
  -6  11   7 731.635 247.588   2
  -6  11   6 606.924 233.742   2
  -6  11   5 897.737 240.376   2
  -6  11   4 1818.66 272.804   2
  -6  11   3 1463.66 268.144   2
  -6  11   2 1846.77 288.063   2
  -6  11   1 468.844 241.503   2
  -6  11   0-18.2483 248.844   2
  -6  11  -1 668.403 262.479   2
  -6  11  -2 2563.29 315.505   2
  -6  11  -3 840.387 266.832   2
  -6  11  -4 2514.46 316.907   2
  -6  11  -5 1565.74 235.873   2
  -6  11  -6 1193.85 232.656   2
  -6  11  -7 1315.73 243.102   2
  -6  11  -8 936.513 238.748   2
  -6  11  -9 960.099 254.873   2
  -6  11 -10 699.077 246.223   2
  -6  10  12 466.301 245.013   2
  -6  10  11 904.287 254.006   2
  -6  10  10 898.865 253.791   2
  -6  10   9 2162.91 284.021   2
  -6  10   8 981.036 246.606   2
  -6  10   7 1527.21 251.097   2
  -6  10   6 1285.89 248.782   2
  -6  10   5 1400.69 245.630   2
  -6  10   4 1286.92 233.805   2
  -6  10   3 1940.01 277.152   2
  -6  10   2 938.066 233.078   2
  -6  10   1 1013.71 247.875   2
  -6  10   0 885.129 249.040   2
  -6  10  -1 782.049 244.746   2
  -6  10  -2 1094.79 256.860   2
  -6  10  -3 880.329 248.801   2
  -6  10  -4 2293.74 243.441   2
  -6  10  -5 377.742 192.275   2
  -6  10  -6 809.134 206.802   2
  -6  10  -7 324.186 205.059   2
  -6  10  -8 1485.21 242.441   2
  -6  10  -9 477.306 218.940   2
  -6  10 -10 982.442 237.365   2
  -6  10 -11 56.5349 241.086   2
  -6   9  13 320.829 359.322   2
  -6   9  12 1379.08 263.720   2
  -6   9  11 267.683 218.473   2
  -6   9  10 1186.18 248.074   2
  -6   9   9 657.340 226.569   2
  -6   9   8 1560.55 248.418   2
  -6   9   7 883.854 215.321   2
  -6   9   6 1591.24 245.246   2
  -6   9   5 1382.82 235.664   2
  -6   9   4 1112.14 218.207   2
  -6   9   3 243.405 197.696   2
  -6   9   2 986.706 222.654   2
  -6   9   1 1827.30 261.173   2
  -6   9   0 1739.85 258.917   2
  -6   9  -1 1256.37 242.501   2
  -6   9  -2 3077.83 302.087   2
  -6   9  -3 1340.87 207.809   2
  -6   9  -4 905.294 193.719   2
  -6   9  -5 1026.20 200.838   2
  -6   9  -6 3268.75 269.261   2
  -6   9  -7 1757.21 240.364   2
  -6   9  -8 1447.46 212.977   2
  -6   9  -9 600.243 223.659   2
  -6   9 -10 1127.88 257.768   2
  -6   9 -11 912.518 254.377   2
  -6   9 -12 1226.13 353.275   2
  -6   8  14 497.323 346.248   2
  -6   8  13 1863.95 268.825   2
  -6   8  12 816.602 219.162   2
  -6   8  11 2774.05 284.739   2
  -6   8  10 756.011 216.833   2
  -6   8   9 2202.50 255.763   2
  -6   8   8 597.693 203.399   2
  -6   8   7 2726.41 254.986   2
  -6   8   6 2109.36 234.961   2
  -6   8   5 2912.09 257.156   2
  -6   8   4 881.042 196.309   2
  -6   8   3 1612.55 225.752   2
  -6   8   2 3453.32 286.577   2
  -6   8   1 3857.51 305.017   2
  -6   8   0 725.488 217.429   2
  -6   8  -1 367.629 195.772   2
  -6   8  -2 1312.83 235.597   2
  -6   8  -3 1799.57 205.935   2
  -6   8  -4 1653.79 208.698   2
  -6   8  -5 1633.42 217.784   2
  -6   8  -6 1361.55 218.317   2
  -6   8  -7 322.586 193.978   2
  -6   8  -8 1628.88 250.512   2
  -6   8  -9 1751.89 260.392   2
  -6   8 -10 1135.23 248.709   2
  -6   8 -11 337.134 311.967   2
  -6   8 -12 1086.63 359.392   2
  -6   7  13 719.130 320.120   2
  -6   7  12 1747.24 241.346   2
  -6   7  11 1205.02 227.023   2
  -6   7  10 1299.11 222.082   2
  -6   7   9 714.207 195.390   2
  -6   7   8 2550.22 240.497   2
  -6   7   7 1011.14 193.327   2
  -6   7   6 1472.79 203.814   2
  -6   7   5 2261.00 370.594   2
  -6   7   4 4136.01 445.383   2
  -6   7   3 1725.08 359.388   2
  -6   7   2 3571.83 266.357   2
  -6   7   1 108.817 172.003   2
  -6   7   0 1455.91 365.566   2
  -6   7  -1 2353.31 396.503   2
  -6   7  -2 3575.16 320.165   2
  -6   7  -3 405.089 161.091   2
  -6   7  -4 7726.01 321.019   2
  -6   7  -5 1744.44 208.967   2
  -6   7  -6 2743.52 261.096   2
  -6   7  -7 1739.64 244.228   2
  -6   7  -8 1110.83 229.646   2
  -6   7  -9 710.373 231.263   2
  -6   7 -10 2577.15 277.462   2
  -6   7 -11 1563.59 364.055   2
  -6   7 -12 1083.22 358.916   2
  -6   6  16 312.107 424.302   2
  -6   6  15 1223.04 447.980   2
  -6   6  13 1468.77 334.836   2
  -6   6  12 127.657 266.114   2
  -6   6  11 3367.56 263.941   2
  -6   6  10 261.612 173.931   2
  -6   6   9 2291.18 225.730   2
  -6   6   8 733.170 170.652   2
  -6   6   7 3008.45 388.041   2
  -6   6   6 304.833 144.422   2
  -6   6   5 1360.32 173.093   2
  -6   6   4 759.203 165.713   2
  -6   6   3 1596.77 194.228   2
  -6   6   2 610.403 170.925   2
  -6   6   1 1905.12 205.142   2
  -6   6   0 2950.62 224.293   2
  -6   6  -1 1489.58 189.346   2
  -6   6  -2 1832.79 180.528   2
  -6   6  -3 1869.34 268.319   2
  -6   6  -4 1626.08 271.434   2
  -6   6  -5 109.257 188.815   2
  -6   6  -6 1212.11 220.742   2
  -6   6  -7 1395.67 226.109   2
  -6   6  -8 2925.16 270.365   2
  -6   6  -9 985.988 230.639   2
  -6   6 -10 891.771 236.993   2
  -6   6 -11 590.620 317.439   2
  -6   6 -12 1404.73 365.398   2
  -6   5  16 1443.95 492.910   2
  -6   5  15 1446.02 464.390   2
  -6   5  14 2007.04 288.208   2
  -6   5  13 1424.43 249.298   2
  -6   5  12 3673.43 412.489   2
  -6   5  11 1340.85 303.668   2
  -6   5  10 2073.80 213.488   2
  -6   5   9 1538.82 344.911   2
  -6   5   8 2667.42 377.786   2
  -6   5   7 1707.77 178.661   2
  -6   5   6 4882.03 242.154   2
  -6   5   5 2698.03 197.000   2
  -6   5   4 6195.65 261.390   2
  -6   5   3 643.831 148.526   2
  -6   5   2 2944.51 200.253   2
  -6   5   1 1249.90 158.543   2
  -6   5   0 9493.81 313.398   2
  -6   5  -1 1594.55 173.390   2
  -6   5  -2 2751.22 287.779   2
  -6   5  -3 1027.19 248.108   2
  -6   5  -4 2171.55 276.267   2
  -6   5  -5 933.907 202.689   2
  -6   5  -6 7748.13 360.159   2
  -6   5  -7 1026.77 217.900   2
  -6   5  -8 1433.98 234.074   2
  -6   5  -9 1495.35 247.620   2
  -6   5 -10 1947.61 356.412   2
  -6   5 -11 90.0081 309.935   2
  -6   5 -12 621.239 325.087   2
  -6   4  17 746.434 482.719   2
  -6   4  16 94.3187 442.839   2
  -6   4  15 3171.08 543.364   2
  -6   4  14 916.162 246.929   2
  -6   4  13 2384.81 289.823   2
  -6   4  12 682.124 226.708   2
  -6   4  11 2483.65 268.107   2
  -6   4  10 8.42119 272.363   2
  -6   4   9 1987.93 192.236   2
  -6   4   8 365.397 133.097   2
  -6   4   7 3081.32 193.415   2
  -6   4   6 1119.62 140.045   2
  -6   4   5 777.532 124.168   2
  -6   4   4 617.075 122.759   2
  -6   4   3 1256.81 119.368   2
  -6   4   2 2196.89 135.167   2
  -6   4   1 768.680 306.912   2
  -6   4   0 99.9689 300.443   2
  -6   4  -1 1311.50 242.072   2
  -6   4  -2 3133.54 297.651   2
  -6   4  -3 2698.79 293.165   2
  -6   4  -4 1073.18 201.226   2
  -6   4  -5 1686.13 223.553   2
  -6   4  -6 1966.16 237.254   2
  -6   4  -7 1910.37 235.473   2
  -6   4  -8 1644.06 238.705   2
  -6   4  -9 1666.72 239.979   2
  -6   4 -10 1454.62 352.553   2
  -6   4 -11 2290.05 381.255   2
  -6   4 -12 1371.32 365.620   2
  -6   3  17 304.117 481.941   2
  -6   3  16 2014.23 507.115   2
  -6   3  15 75.3463 423.762   2
  -6   3  14 2305.29 293.792   2
  -6   3  13 2083.28 278.877   2
  -6   3  12 2725.12 290.073   2
  -6   3  11 1562.05 254.119   2
  -6   3  10 4463.68 324.383   2
  -6   3   9 713.042 208.459   2
  -6   3   8 3865.65 185.137   2
  -6   3   7 972.761 124.462   2
  -6   3   6 3694.38 161.967   2
  -6   3   5 919.328 293.460   2
  -6   3   4 6171.92 499.791   2
  -6   3   3 1435.50 332.893   2
  -6   3   2 7070.23 522.868   2
  -6   3   1 558.600 295.833   2
  -6   3   0 5669.00 485.780   2
  -6   3  -1 1157.66 238.819   2
  -6   3  -2 2955.27 289.201   2
  -6   3  -3 828.739 190.427   2
  -6   3  -4 7275.48 333.416   2
  -6   3  -5 807.323 203.055   2
  -6   3  -6 1442.67 219.409   2
  -6   3  -7 980.471 208.294   2
  -6   3  -8 1270.63 222.390   2
  -6   3  -9 1891.83 255.843   2
  -6   3 -10 830.583 325.358   2
  -6   3 -11 771.125 333.021   2
  -6   3 -12 553.452 342.146   2
  -6   2  17 1986.91 519.637   2
  -6   2  16 367.343 390.303   2
  -6   2  15 1780.55 281.071   2
  -6   2  14 749.081 248.085   2
  -6   2  13 2372.81 287.480   2
  -6   2  12 424.825 218.972   2
  -6   2  11 2999.29 295.865   2
  -6   2  10 282.840 196.951   2
  -6   2   9 1120.05 224.604   2
  -6   2   8 919.605 110.321   2
  -6   2   7 2939.36 268.497   2
  -6   2   6 709.310 200.996   2
  -6   2   5 1181.38 201.632   2
  -6   2   4 2104.23 227.209   2
  -6   2   3 879.360 188.331   2
  -6   2   2 789.275 305.229   2
  -6   2   1 1254.95 167.898   2
  -6   2   0 2033.64 185.749   2
  -6   2  -1 3118.83 171.619   2
  -6   2  -2 1814.00 257.518   2
  -6   2  -3 578.237 181.447   2
  -6   2  -4 945.351 200.188   2
  -6   2  -5 1830.35 231.236   2
  -6   2  -6 1737.84 226.259   2
  -6   2  -7 3687.69 283.945   2
  -6   2  -8 1300.50 229.337   2
  -6   2  -9 975.802 336.407   2
  -6   2 -10 1275.89 349.412   2
  -6   2 -11 2011.87 382.176   2
  -6   1  18 1501.63 529.120   2
  -6   1  17 1055.08 458.820   2
  -6   1  16 1596.12 490.922   2
  -6   1  15 711.978 239.618   2
  -6   1  14 2545.82 307.164   2
  -6   1  13 1148.34 243.724   2
  -6   1  12 5183.80 356.065   2
  -6   1  11 1911.66 258.713   2
  -6   1  10 4060.70 316.288   2
  -6   1   9 363.838 202.734   2
  -6   1   8 2681.30 268.431   2
  -6   1   7 707.854 205.805   2
  -6   1   6 12235.1 433.455   2
  -6   1   5 868.947 192.215   2
  -6   1   4 3692.51 260.569   2
  -6   1   3 93.4067 257.825   2
  -6   1   2 5052.75 273.803   2
  -6   1   1 1765.86 182.300   2
  -6   1   0 9442.65 302.322   2
  -6   1  -1 488.406 206.493   2
  -6   1  -2 3519.17 254.974   2
  -6   1  -3 1835.80 223.764   2
  -6   1  -4 2697.73 243.751   2
  -6   1  -5 682.408 194.655   2
  -6   1  -6 5153.65 309.305   2
  -6   1  -7 672.681 207.093   2
  -6   1  -8 3631.07 294.543   2
  -6   1  -9 1493.11 354.910   2
  -6   1 -10 1070.67 339.523   2
  -6   1 -11 388.113 347.879   2
  -6   0  18 263.015 481.442   2
  -6   0  17 3000.21 590.599   2
  -6   0  16 153.943 433.504   2
  -6   0  15 2561.05 314.205   2
  -6   0  14 432.259 227.581   2
  -6   0  13 2164.43 276.890   2
  -6   0  12 1932.11 269.316   2
  -6   0  11 2053.50 267.835   2
  -6   0  10 496.659 216.684   2
  -6   0   9 2019.97 256.406   2
  -6   0   8 1118.75 228.377   2
  -6   0   7 1982.08 207.746   2
  -6   0   6 1481.48 182.048   2
  -6   0   5 2709.27 212.651   2
  -6   0   4 416.383 147.479   2
  -6   0   3 1474.86 106.405   2
  -6   0   2 875.962 104.259   2
  -6   0   1 872.424 105.607   2
  -6   0   0 761.563 130.937   2
  -6   0  -1 4752.31 326.840   2
  -6   0  -2 1176.14 202.162   2
  -6   0  -3 2625.86 239.603   2
  -6   0  -4 457.274 190.254   2
  -6   0  -5 1720.93 220.951   2
  -6   0  -6 1000.86 217.500   2
  -6   0  -7 2137.37 263.081   2
  -6   0  -8 1361.57 244.775   2
  -6   0  -9 1358.64 343.757   2
  -6   0 -10 751.609 336.811   2
  -6  -1  18 1409.50 510.068   2
  -6  -1  17 522.129 422.162   2
  -6  -1  16 2929.90 337.394   2
  -6  -1  15 113.031 245.873   2
  -6  -1  14 2842.35 315.160   2
  -6  -1  13 755.796 240.569   2
  -6  -1  12 2827.82 293.997   2
  -6  -1  11 1060.08 201.436   2
  -6  -1  10 7958.81 326.799   2
  -6  -1   9 875.279 178.502   2
  -6  -1   8 2889.56 228.445   2
  -6  -1   7 1043.74 180.277   2
  -6  -1   6 2000.20 199.094   2
  -6  -1   5 1287.57 174.343   2
  -6  -1   4 5331.62 195.636   2
  -6  -1   3 553.358 102.753   2
  -6  -1   2 4429.78 172.963   2
  -6  -1   1 1353.10 127.908   2
  -6  -1   0 2975.51 200.442   2
  -6  -1  -1 387.034 140.722   2
  -6  -1  -2 4444.31 202.236   2
  -6  -1  -3 900.335 141.661   2
  -6  -1  -4 3103.27 219.287   2
  -6  -1  -5 1365.50 232.161   2
  -6  -1  -6 954.362 236.847   2
  -6  -1  -7 1329.40 236.320   2
  -6  -1  -8 3012.43 392.478   2
  -6  -1  -9 1433.13 352.311   2
  -6  -1 -10 849.079 355.129   2
  -6  -2  18-3.75342 452.071   2
  -6  -2  17 1152.83 493.704   2
  -6  -2  16 238.336 266.360   2
  -6  -2  15 1039.78 283.949   2
  -6  -2  14 118.577 187.598   2
  -6  -2  13 2091.43 238.696   2
  -6  -2  12 300.917 188.322   2
  -6  -2  11 1903.67 221.857   2
  -6  -2  10 1426.88 206.826   2
  -6  -2   9 1530.28 212.629   2
  -6  -2   8 903.947 191.024   2
  -6  -2   7 1494.29 200.992   2
  -6  -2   6 286.829 163.788   2
  -6  -2   5 5109.32 187.587   2
  -6  -2   4 1785.23 139.388   2
  -6  -2   3 2856.08 159.607   2
  -6  -2   2 156.791 106.035   2
  -6  -2   1 1731.16 174.516   2
  -6  -2   0 1736.54 182.279   2
  -6  -2  -1 4392.18 246.568   2
  -6  -2  -2 752.888 142.291   2
  -6  -2  -3 2089.82 171.157   2
  -6  -2  -4 597.962 148.198   2
  -6  -2  -5 2738.71 195.114   2
  -6  -2  -6 396.407 182.561   2
  -6  -2  -7 2229.29 275.436   2
  -6  -2  -8 607.640 331.649   2
  -6  -2  -9 1432.29 392.964   2
  -6  -3  17 19.4689 442.828   2
  -6  -3  16 2549.85 272.887   2
  -6  -3  15 328.996 196.718   2
  -6  -3  14 2496.50 261.574   2
  -6  -3  13 199.929 192.002   2
  -6  -3  12 3226.09 269.590   2
  -6  -3  11 840.203 199.986   2
  -6  -3  10 2129.78 233.412   2
  -6  -3   9 694.701 190.209   2
  -6  -3   8 3394.59 257.484   2
  -6  -3   7 279.823 175.546   2
  -6  -3   6 4579.20 198.663   2
  -6  -3   5 563.592 120.422   2
  -6  -3   4 1408.44 159.495   2
  -6  -3   3 209.697 120.071   2
  -6  -3   2 3071.03 173.471   2
  -6  -3   1 162.835 144.581   2
  -6  -3   0 1756.26 192.688   2
  -6  -3  -1 573.400 173.876   2
  -6  -3  -2 4362.10 236.119   2
  -6  -3  -3 921.552 160.896   2
  -6  -3  -4 1654.81 175.210   2
  -6  -3  -5 279.335 152.797   2
  -6  -3  -6 1278.85 179.149   2
  -6  -3  -7 188.038 170.425   2
  -6  -3  -8 2303.90 307.455   2
  -6  -4  17 1139.50 524.954   2
  -6  -4  16 273.198 218.917   2
  -6  -4  15 1830.50 254.159   2
  -6  -4  14 152.593 210.590   2
  -6  -4  13 1933.34 253.971   2
  -6  -4  12 593.455 213.107   2
  -6  -4  11 1511.70 238.307   2
  -6  -4  10 378.323 208.380   2
  -6  -4   9 2297.05 244.147   2
  -6  -4   8 93.1674 189.379   2
  -6  -4   7 1344.33 215.719   2
  -6  -4   6 799.087 146.332   2
  -6  -4   5 1785.56 165.644   2
  -6  -4   4-10.1670 125.599   2
  -6  -4   3 3358.14 189.425   2
  -6  -4   2 110.833 153.026   2
  -6  -4   1 1805.54 200.351   2
  -6  -4   0 571.614 171.348   2
  -6  -4  -1 1592.67 205.941   2
  -6  -4  -2 132.675 163.440   2
  -6  -4  -3 4613.94 237.197   2
  -6  -4  -4 400.690 160.632   2
  -6  -4  -5 2057.78 199.590   2
  -6  -4  -6 206.192 164.349   2
  -6  -4  -7 611.062 256.232   2
  -6  -5  16 1400.86 272.486   2
  -6  -5  15 301.470 231.811   2
  -6  -5  14 1235.55 244.100   2
  -6  -5  13 172.826 218.956   2
  -6  -5  12 2242.21 271.819   2
  -6  -5  11 470.725 217.637   2
  -6  -5  10 2437.08 264.514   2
  -6  -5   9 1229.06 226.733   2
  -6  -5   8 3493.06 293.653   2
  -6  -5   7 121.240 140.605   2
  -6  -5   6 1103.39 164.287   2
  -6  -5   5 280.110 142.738   2
  -6  -5   4 4148.45 221.726   2
  -6  -5   3 660.191 178.362   2
  -6  -5   2 3119.76 242.661   2
  -6  -5   1 115.948 176.946   2
  -6  -5   0 1297.28 205.783   2
  -6  -5  -1 1109.92 208.221   2
  -6  -5  -2 2467.36 225.322   2
  -6  -5  -3 306.070 173.663   2
  -6  -5  -4 2409.60 209.859   2
  -6  -5  -5 422.076 176.922   2
  -6  -6  16 330.116 420.427   2
  -6  -6  15 1161.31 266.503   2
  -6  -6  14 80.4477 244.276   2
  -6  -6  13 1845.98 289.381   2
  -6  -6  12 139.853 234.319   2
  -6  -6  11 1745.57 271.147   2
  -6  -6  10 432.658 226.807   2
  -6  -6   9 1060.99 245.118   2
  -6  -6   8 25.1136 215.551   2
  -6  -6   7 1354.53 238.737   2
  -6  -6   6 596.691 166.207   2
  -6  -6   5 2535.62 205.589   2
  -6  -6   4 144.732 185.615   2
  -6  -6   3 907.382 197.965   2
  -6  -6   2 111.194 190.052   2
  -6  -6   1 2342.30 245.918   2
  -6  -6   0 367.270 200.482   2
  -6  -6  -1 1453.34 231.905   2
  -6  -6  -2 410.589 203.006   2
  -6  -6  -3 1655.71 216.698   2
  -6  -6  -4 187.135 203.039   2
  -6  -7  14 864.069 266.855   2
  -6  -7  13 301.688 261.142   2
  -6  -7  12 1328.90 285.303   2
  -6  -7  11 135.312 250.262   2
  -6  -7  10 1126.25 262.251   2
  -6  -7   9 153.822 231.622   2
  -6  -7   8 2706.57 287.919   2
  -6  -7   7 183.947 213.307   2
  -6  -7   6 3141.82 237.108   2
  -6  -7   5 321.660 209.045   2
  -6  -7   4 1386.45 224.546   2
  -6  -7   3 744.859 210.247   2
  -6  -7   2 1763.04 240.980   2
  -6  -7   1 178.421 214.476   2
  -6  -7   0 2426.73 272.933   2
  -6  -7  -1 373.418 215.502   2
  -6  -7  -2 1697.94 261.332   2
  -6  -8  13 1369.12 353.661   2
  -6  -8  12 66.6592 325.194   2
  -6  -8  11 1261.09 279.597   2
  -6  -8  10 199.819 246.485   2
  -6  -8   9 1015.15 270.111   2
  -6  -8   8 333.253 242.531   2
  -6  -8   7 798.952 240.437   2
  -6  -8   6-41.3441 293.783   2
  -6  -8   5 820.126 225.814   2
  -6  -8   4-60.9327 209.789   2
  -6  -8   3 1885.63 261.979   2
  -6  -8   2 119.117 223.284   2
  -6  -8   1 1287.70 249.446   2
  -6  -8   0 83.9202 271.992   2
  -6  -9   9 357.239 316.149   2
  -6  -9   8 1889.40 348.652   2
  -6  -9   7 68.9578 408.578   2
  -6  -9   6 1058.70 440.936   2
  -6  -9   5 213.704 406.295   2
  -6  -9   4 2602.24 349.632   2
  -7  13   5 51.9610 374.453   2
  -7  13   4 1237.59 313.298   2
  -7  13   3 179.768 270.704   2
  -7  13   2 2497.36 364.705   2
  -7  13   1 102.281 300.414   2
  -7  13   0 949.017 325.859   2
  -7  13  -1 130.958 293.249   2
  -7  13  -2 1892.31 354.613   2
  -7  13  -3 72.9355 288.767   2
  -7  13  -4 1199.21 303.542   2
  -7  13  -5 38.1581 386.210   2
  -7  12   7 1923.74 305.952   2
  -7  12   6-23.1194 243.679   2
  -7  12   5 2303.53 323.045   2
  -7  12   4 261.048 268.603   2
  -7  12   3 2664.03 336.871   2
  -7  12   2-26.6545 272.593   2
  -7  12   1 3840.13 396.492   2
  -7  12   0 125.161 275.501   2
  -7  12  -1 4289.48 386.734   2
  -7  12  -2 256.494 263.170   2
  -7  12  -3 1930.16 324.580   2
  -7  12  -4 82.0093 273.004   2
  -7  12  -5 3297.02 372.862   2
  -7  12  -6-51.6988 238.540   2
  -7  11   9 152.248 420.072   2
  -7  11   8 2322.80 478.267   2
  -7  11   7 382.353 368.117   2
  -7  11   6 1591.31 290.513   2
  -7  11   5-89.3070 241.174   2
  -7  11   4 1446.68 277.223   2
  -7  11   3 261.531 241.061   2
  -7  11   2 2835.09 342.336   2
  -7  11   1 124.537 259.970   2
  -7  11   0 3543.27 360.088   2
  -7  11  -1 17.2825 260.549   2
  -7  11  -2 1444.79 296.806   2
  -7  11  -3-21.9273 255.834   2
  -7  11  -4 2290.58 315.982   2
  -7  11  -5 129.224 263.360   2
  -7  11  -6 1946.38 354.209   2
  -7  11  -7 112.632 312.861   2
  -7  11  -8 1123.21 338.415   2
  -7  10  10 200.613 377.454   2
  -7  10   9 1398.90 413.782   2
  -7  10   8 92.1631 371.682   2
  -7  10   7 2856.34 489.516   2
  -7  10   6 591.850 395.303   2
  -7  10   5 4608.00 547.920   2
  -7  10   4-68.8921 372.331   2
  -7  10   3 2541.92 304.218   2
  -7  10   2 97.6707 239.503   2
  -7  10   1 5974.84 404.381   2
  -7  10   0 555.261 237.012   2
  -7  10  -1 4194.26 349.806   2
  -7  10  -2 254.470 242.161   2
  -7  10  -3 3634.46 530.478   2
  -7  10  -4-6.16283 426.717   2
  -7  10  -5 4913.78 430.386   2
  -7  10  -6 322.154 281.768   2
  -7  10  -7 2210.86 363.910   2
  -7  10  -8-42.7782 304.699   2
  -7  10  -9 1668.09 552.818   2
  -7   9  12 923.872 363.469   2
  -7   9  11 691.078 352.181   2
  -7   9  10 1923.36 420.692   2
  -7   9   9 131.550 326.856   2
  -7   9   8 2157.99 446.592   2
  -7   9   7 559.321 346.873   2
  -7   9   6 2312.43 457.453   2
  -7   9   5 136.525 348.612   2
  -7   9   4 2879.81 471.559   2
  -7   9   3 470.435 369.723   2
  -7   9   2 3733.20 523.215   2
  -7   9   1 400.275 350.551   2
  -7   9   0 3374.82 504.084   2
  -7   9  -1-118.907 353.823   2
  -7   9  -2 4251.76 544.868   2
  -7   9  -3 34.0461 374.126   2
  -7   9  -4 1595.25 304.839   2
  -7   9  -5 229.144 271.053   2
  -7   9  -6 2911.59 372.449   2
  -7   9  -7 110.460 299.035   2
  -7   9  -8 1745.90 335.030   2
  -7   9  -9 339.532 292.382   2
  -7   8  13 856.707 337.528   2
  -7   8  12 39.7163 306.957   2
  -7   8  11 3634.34 465.867   2
  -7   8  10 225.681 318.970   2
  -7   8   9 2799.41 444.449   2
  -7   8   8 344.469 343.497   2
  -7   8   7 3648.09 476.062   2
  -7   8   6 549.010 332.986   2
  -7   8   5 8479.13 646.981   2
  -7   8   4 131.942 340.214   2
  -7   8   3 5577.46 564.390   2
  -7   8   2 266.539 327.866   2
  -7   8   1 6153.23 590.244   2
  -7   8   0 140.343 338.985   2
  -7   8  -1 7376.02 651.421   2
  -7   8  -2 611.941 382.162   2
  -7   8  -3 2162.82 444.772   2
  -7   8  -4 52.9168 257.981   2
  -7   8  -5 3515.89 376.670   2
  -7   8  -6 256.030 277.226   2
  -7   8  -7 2427.26 363.933   2
  -7   8  -8 57.8021 309.831   2
  -7   8  -9 1797.03 290.217   2
  -7   7  13 345.388 354.925   2
  -7   7  12 1049.48 371.681   2
  -7   7  11 577.936 327.948   2
  -7   7  10 2288.04 395.983   2
  -7   7   9 250.197 346.244   2
  -7   7   8 3931.12 483.225   2
  -7   7   7 412.231 330.108   2
  -7   7   6 1871.76 410.769   2
  -7   7   5 1180.74 365.413   2
  -7   7   4 1850.88 392.148   2
  -7   7   3 196.401 336.237   2
  -7   7   2 1577.72 401.759   2
  -7   7   1 80.4665 358.249   2
  -7   7   0 5521.11 555.590   2
  -7   7  -1 586.797 344.374   2
  -7   7  -2 3682.07 502.790   2
  -7   7  -3 285.273 249.143   2
  -7   7  -4 2977.17 340.308   2
  -7   7  -5 55.7800 264.615   2
  -7   7  -6 4502.47 409.983   2
  -7   7  -7 98.4574 284.322   2
  -7   7  -8 1997.64 286.423   2
  -7   7  -9 183.730 242.592   2
  -7   7 -10 2349.22 425.029   2
  -7   6  14 173.192 248.435   2
  -7   6  13 2118.71 404.416   2
  -7   6  12 365.798 306.592   2
  -7   6  11 2294.26 408.714   2
  -7   6  10 1093.60 350.020   2
  -7   6   9 3951.60 485.404   2
  -7   6   8 53.2450 316.953   2
  -7   6   7 4710.35 497.661   2
  -7   6   6 998.126 344.168   2
  -7   6   5 6211.29 557.906   2
  -7   6   4 109.876 321.640   2
  -7   6   3 8220.81 625.727   2
  -7   6   2 287.542 339.013   2
  -7   6   1 10272.4 691.478   2
  -7   6   0 14.2906 326.949   2
  -7   6  -1 4159.99 506.471   2
  -7   6  -2 341.339 335.573   2
  -7   6  -3 6420.24 426.285   2
  -7   6  -4-154.461 247.896   2
  -7   6  -5 1916.62 312.044   2
  -7   6  -6 127.526 268.309   2
  -7   6  -7 2092.65 286.120   2
  -7   6  -8-30.6074 235.405   2
  -7   6  -9 1134.29 271.031   2
  -7   6 -10 311.645 349.606   2
  -7   5  15 232.368 452.493   2
  -7   5  14 1575.86 294.877   2
  -7   5  13 493.858 263.968   2
  -7   5  12 1556.01 296.887   2
  -7   5  11 865.526 339.443   2
  -7   5  10 2906.10 426.899   2
  -7   5   9 471.466 321.312   2
  -7   5   8 1771.73 399.513   2
  -7   5   7 399.772 328.842   2
  -7   5   6 4102.28 475.253   2
  -7   5   5 905.246 350.382   2
  -7   5   4 5084.27 513.681   2
  -7   5   3 703.334 363.370   2
  -7   5   2 3163.29 453.457   2
  -7   5   1 44.6486 326.155   2
  -7   5   0 4795.12 530.406   2
  -7   5  -1 436.609 328.981   2
  -7   5  -2 8074.43 628.228   2
  -7   5  -3 604.674 264.325   2
  -7   5  -4 1730.55 312.746   2
  -7   5  -5 133.380 250.004   2
  -7   5  -6 4609.30 342.303   2
  -7   5  -7 194.488 242.958   2
  -7   5  -8 2732.03 311.257   2
  -7   5  -9 256.364 235.434   2
  -7   5 -10 1153.01 383.989   2
  -7   4  16 73.8289 438.131   2
  -7   4  15 1395.55 493.766   2
  -7   4  14 121.339 258.116   2
  -7   4  13 2535.42 320.514   2
  -7   4  12 522.687 250.793   2
  -7   4  11 3454.37 332.711   2
  -7   4  10 435.862 245.527   2
  -7   4   9 4388.12 341.320   2
  -7   4   8 514.961 223.771   2
  -7   4   7 8316.52 606.695   2
  -7   4   6 210.141 320.210   2
  -7   4   5 4844.39 507.511   2
  -7   4   4-71.1605 345.129   2
  -7   4   3 5285.63 530.753   2
  -7   4   2 470.823 340.257   2
  -7   4   1 5726.56 541.841   2
  -7   4   0 70.4215 328.668   2
  -7   4  -1 6141.26 556.020   2
  -7   4  -2 442.724 242.870   2
  -7   4  -3 3974.68 363.207   2
  -7   4  -4 505.247 237.818   2
  -7   4  -5 1148.20 245.215   2
  -7   4  -6 185.158 225.815   2
  -7   4  -7 2299.88 282.596   2
  -7   4  -8 85.0318 245.465   2
  -7   4  -9 1578.17 387.423   2
  -7   3  16 545.271 466.381   2
  -7   3  15 492.595 269.449   2
  -7   3  14 1446.45 290.107   2
  -7   3  13 927.651 266.469   2
  -7   3  12 1911.28 296.518   2
  -7   3  11 324.788 236.882   2
  -7   3  10 1522.88 270.485   2
  -7   3   9 851.268 248.064   2
  -7   3   8 3404.79 312.981   2
  -7   3   7 153.468 211.965   2
  -7   3   6 4650.58 334.627   2
  -7   3   5 2069.10 251.823   2
  -7   3   4 5271.77 331.084   2
  -7   3   3 264.387 200.464   2
  -7   3   2 3596.13 466.643   2
  -7   3   1 192.466 163.364   2
  -7   3   0 10047.1 680.406   2
  -7   3  -1 516.666 331.707   2
  -7   3  -2 4152.66 362.956   2
  -7   3  -3 336.582 253.410   2
  -7   3  -4 5181.50 391.900   2
  -7   3  -5 321.653 212.131   2
  -7   3  -6 2623.25 295.348   2
  -7   3  -7 144.296 228.279   2
  -7   3  -8 2710.65 297.651   2
  -7   3  -9 296.905 350.155   2
  -7   2  16 764.673 486.860   2
  -7   2  15 1832.42 314.785   2
  -7   2  14 422.768 256.503   2
  -7   2  13 3094.74 344.062   2
  -7   2  12 337.510 241.733   2
  -7   2  11 2178.45 297.648   2
  -7   2  10 1738.52 276.609   2
  -7   2   9 5302.42 368.385   2
  -7   2   8 791.750 233.026   2
  -7   2   7 5674.99 363.461   2
  -7   2   6 495.554 207.727   2
  -7   2   5 4559.35 316.043   2
  -7   2   4 1551.67 235.042   2
  -7   2   3 5903.08 331.697   2
  -7   2   2 726.373 189.498   2
  -7   2   1 5174.78 522.362   2
  -7   2   0 177.664 291.703   2
  -7   2  -1 3688.32 465.906   2
  -7   2  -2 861.165 270.056   2
  -7   2  -3 5274.58 390.739   2
  -7   2  -4 388.585 214.557   2
  -7   2  -5 971.917 239.493   2
  -7   2  -6 202.772 233.791   2
  -7   2  -7 2082.01 282.577   2
  -7   2  -8 25.2983 228.893   2
  -7   2  -9 861.640 359.380   2
  -7   1  16 887.302 503.909   2
  -7   1  15 727.125 269.075   2
  -7   1  14 1019.24 280.063   2
  -7   1  13 692.570 256.376   2
  -7   1  12 1844.53 299.851   2
  -7   1  11 998.041 261.158   2
  -7   1  10 4294.42 349.063   2
  -7   1   9 497.902 243.219   2
  -7   1   8 1961.11 271.281   2
  -7   1   7 856.083 222.519   2
  -7   1   6 7815.99 396.434   2
  -7   1   5 888.509 221.935   2
  -7   1   4 8503.93 384.658   2
  -7   1   3 749.979 189.244   2
  -7   1   2 3774.63 256.516   2
  -7   1   1 1556.49 387.077   2
  -7   1   0 8052.29 609.644   2
  -7   1  -1 157.152 313.067   2
  -7   1  -2 7185.45 574.970   2
  -7   1  -3 720.520 255.819   2
  -7   1  -4 3329.03 296.960   2
  -7   1  -5 660.052 247.165   2
  -7   1  -6 1077.86 251.915   2
  -7   1  -7 7.23716 249.820   2
  -7   1  -8 2468.10 405.864   2
  -7   0  16 677.346 295.318   2
  -7   0  15 1567.98 307.159   2
  -7   0  14 1140.75 290.904   2
  -7   0  13 2606.43 345.380   2
  -7   0  12 674.158 259.853   2
  -7   0  11 2011.38 299.094   2
  -7   0  10 560.809 237.650   2
  -7   0   9 2860.86 313.116   2
  -7   0   8 2159.23 283.359   2
  -7   0   7 6324.66 369.812   2
  -7   0   6 680.408 217.177   2
  -7   0   5 3546.24 283.209   2
  -7   0   4 204.260 179.445   2
  -7   0   3 3258.45 269.819   2
  -7   0   2 1089.95 363.952   2
  -7   0   1 1638.99 391.173   2
  -7   0   0 638.728 360.531   2
  -7   0  -1 5810.90 554.520   2
  -7   0  -2 139.980 334.882   2
  -7   0  -3 1958.95 299.463   2
  -7   0  -4 560.974 231.008   2
  -7   0  -5 1191.51 247.624   2
  -7   0  -6 448.456 237.713   2
  -7   0  -7 1381.60 276.267   2
  -7   0  -8-30.5084 465.416   2
  -7  -1  16 779.373 300.881   2
  -7  -1  15 311.539 285.393   2
  -7  -1  14 1176.16 304.202   2
  -7  -1  13 1037.95 284.848   2
  -7  -1  12 2802.88 340.789   2
  -7  -1  11 420.228 243.121   2
  -7  -1  10 1517.85 223.700   2
  -7  -1   9 573.292 201.943   2
  -7  -1   8 4936.48 296.861   2
  -7  -1   7 1145.23 208.446   2
  -7  -1   6 4524.96 280.469   2
  -7  -1   5 1255.23 193.555   2
  -7  -1   4 5048.42 277.697   2
  -7  -1   3 1435.80 269.332   2
  -7  -1   2 8609.97 448.866   2
  -7  -1   1 1091.51 252.807   2
  -7  -1   0 4408.01 359.734   2
  -7  -1  -1 614.601 235.375   2
  -7  -1  -2 4252.46 520.279   2
  -7  -1  -3 846.658 278.417   2
  -7  -1  -4 7630.08 395.079   2
  -7  -1  -5 675.010 250.012   2
  -7  -1  -6 714.730 251.540   2
  -7  -1  -7 235.233 347.679   2
  -7  -2  16 1219.94 324.178   2
  -7  -2  15 1286.06 321.772   2
  -7  -2  14 1878.95 342.594   2
  -7  -2  13 2630.93 276.209   2
  -7  -2  12 1622.53 255.363   2
  -7  -2  11 1870.52 249.826   2
  -7  -2  10 703.128 210.721   2
  -7  -2   9 3334.39 277.206   2
  -7  -2   8 1538.32 229.356   2
  -7  -2   7 3351.08 269.211   2
  -7  -2   6 933.411 202.737   2
  -7  -2   5 4907.09 293.560   2
  -7  -2   4 619.304 253.742   2
  -7  -2   3 3325.58 341.596   2
  -7  -2   2 342.355 246.630   2
  -7  -2   1 1793.80 291.885   2
  -7  -2   0 914.765 266.596   2
  -7  -2  -1 2182.64 312.232   2
  -7  -2  -2 320.818 240.265   2
  -7  -2  -3 1836.51 313.670   2
  -7  -2  -4 355.391 240.102   2
  -7  -2  -5 973.551 255.426   2
  -7  -2  -6 161.984 253.097   2
  -7  -3  15 225.942 238.716   2
  -7  -3  14 1271.17 256.489   2
  -7  -3  13 570.050 228.645   2
  -7  -3  12 2491.38 281.309   2
  -7  -3  11 1511.29 258.970   2
  -7  -3  10 2219.59 270.254   2
  -7  -3   9 402.231 204.992   2
  -7  -3   8 2448.83 263.115   2
  -7  -3   7 1121.85 223.187   2
  -7  -3   6 7431.24 357.315   2
  -7  -3   5 1208.08 284.072   2
  -7  -3   4 2620.08 324.908   2
  -7  -3   3 660.791 264.616   2
  -7  -3   2 4037.62 365.073   2
  -7  -3   1 1351.94 291.273   2
  -7  -3   0 3267.32 356.791   2
  -7  -3  -1 210.661 248.166   2
  -7  -3  -2 2623.34 329.167   2
  -7  -3  -3 316.914 271.637   2
  -7  -3  -4 1946.07 230.697   2
  -7  -3  -5 430.836 212.357   2
  -7  -4  15 1006.27 264.623   2
  -7  -4  14 644.464 242.058   2
  -7  -4  13 1074.98 249.955   2
  -7  -4  12 1736.83 271.782   2
  -7  -4  11 2172.24 282.927   2
  -7  -4  10 546.701 234.043   2
  -7  -4   9 1833.82 266.708   2
  -7  -4   8 677.920 230.904   2
  -7  -4   7 3025.37 290.022   2
  -7  -4   6 2380.71 271.798   2
  -7  -4   5 3595.18 377.855   2
  -7  -4   4 569.052 267.622   2
  -7  -4   3 2046.54 317.021   2
  -7  -4   2 397.413 290.840   2
  -7  -4   1 1295.75 302.947   2
  -7  -4   0 1150.51 289.751   2
  -7  -4  -1 3129.27 360.254   2
  -7  -4  -2 460.552 273.904   2
  -7  -4  -3 1110.47 296.693   2
  -7  -5  14 1436.85 292.335   2
  -7  -5  13 686.562 265.030   2
  -7  -5  12 2307.06 305.435   2
  -7  -5  11 1772.13 286.624   2
  -7  -5  10 1118.18 259.760   2
  -7  -5   9 690.630 246.514   2
  -7  -5   8 3261.36 312.297   2
  -7  -5   7 1085.50 247.621   2
  -7  -5   6 3197.77 395.003   2
  -7  -5   5 1523.97 332.136   2
  -7  -5   4 3182.76 359.917   2
  -7  -5   3 563.899 283.494   2
  -7  -5   2 3308.73 378.095   2
  -7  -5   1 445.446 283.870   2
  -7  -5   0 1706.54 328.574   2
  -7  -5  -1 321.432 285.979   2
  -7  -5  -2 3384.70 589.339   2
  -7  -6  12 978.229 276.051   2
  -7  -6  11 1649.18 293.418   2
  -7  -6  10 937.999 276.341   2
  -7  -6   9 1882.00 296.401   2
  -7  -6   8 590.203 247.018   2
  -7  -6   7 1127.70 318.701   2
  -7  -6   6 851.708 298.589   2
  -7  -6   5 2909.97 391.236   2
  -7  -6   4 1553.68 340.263   2
  -7  -6   3 1222.24 320.818   2
  -7  -6   2 180.235 278.262   2
  -7  -6   1 1611.27 339.535   2
  -7  -7   9 1165.96 288.676   2
  -7  -7   8 1190.92 346.933   2
  -7  -7   7 675.867 327.181   2
  -7  -7   6 2891.67 392.297   2
  -7  -7   5 1086.73 330.651   2
  -7  -7   4 2262.66 386.083   2
  -8  12   2 522.220 479.750   2
  -8  12   1 1769.79 535.553   2
  -8  12   0 777.790 468.323   2
  -8  11   6 930.316 441.553   2
  -8  11   5 256.564 412.402   2
  -8  11   4 981.628 475.201   2
  -8  11   3 586.643 444.191   2
  -8  11   2 518.230 436.591   2
  -8  11   1 567.201 414.080   2
  -8  11   0 539.623 442.124   2
  -8  11  -1 215.157 419.512   2
  -8  11  -2 515.773 445.624   2
  -8  11  -3 344.565 441.649   2
  -8  10   8 720.549 404.713   2
  -8  10   7 675.855 381.546   2
  -8  10   6 715.188 424.531   2
  -8  10   5 601.379 445.415   2
  -8  10   4 561.377 394.304   2
  -8  10   3 585.347 419.347   2
  -8  10   2 768.748 452.790   2
  -8  10   1 844.060 446.739   2
  -8  10   0 1025.88 460.898   2
  -8  10  -1 1956.82 495.860   2
  -8  10  -2 999.998 471.592   2
  -8  10  -3 2070.17 506.466   2
  -8  10  -4 279.807 423.206   2
  -8  10  -5 1376.37 483.971   2
  -8   9  10 717.235 398.522   2
  -8   9   9 1193.81 446.457   2
  -8   9   8 1580.81 461.957   2
  -8   9   7 825.248 413.597   2
  -8   9   6 250.148 382.147   2
  -8   9   5 836.308 422.427   2
  -8   9   4 1480.82 438.136   2
  -8   9   3 2354.88 499.925   2
  -8   9   2 978.375 443.139   2
  -8   9   1 1257.56 433.354   2
  -8   9   0 1188.95 437.629   2
  -8   9  -1 710.207 392.662   2
  -8   9  -2 531.497 415.773   2
  -8   9  -3 1469.35 486.539   2
  -8   9  -4 22.4047 424.566   2
  -8   9  -5 582.322 315.139   2
  -8   9  -6 345.719 332.742   2
  -8   8  11 783.117 373.277   2
  -8   8  10 669.185 388.314   2
  -8   8   9 1431.56 449.041   2
  -8   8   8 834.207 414.693   2
  -8   8   7 924.819 408.641   2
  -8   8   6 1293.73 411.062   2
  -8   8   5 626.706 407.084   2
  -8   8   4 802.805 409.637   2
  -8   8   3 1822.79 460.459   2
  -8   8   2 539.303 415.666   2
  -8   8   1 3079.15 518.158   2
  -8   8   0 799.391 412.362   2
  -8   8  -1 1220.10 464.107   2
  -8   8  -2 110.151 419.975   2
  -8   8  -3 980.882 450.803   2
  -8   8  -4 1057.27 443.582   2
  -8   8  -5 1119.50 334.811   2
  -8   8  -6 504.969 346.269   2
  -8   7  12 663.735 348.523   2
  -8   7  11 792.833 413.903   2
  -8   7  10 240.830 356.167   2
  -8   7   9 2272.32 446.463   2
  -8   7   8 1862.52 432.479   2
  -8   7   7 1405.65 415.181   2
  -8   7   6 1308.23 429.947   2
  -8   7   5 446.322 378.474   2
  -8   7   4 520.614 382.982   2
  -8   7   3 2070.62 471.155   2
  -8   7   2 793.404 405.745   2
  -8   7   1 1771.90 439.515   2
  -8   7   0 649.937 403.584   2
  -8   7  -1 1723.44 464.376   2
  -8   7  -2 725.104 419.122   2
  -8   7  -3 1759.65 444.680   2
  -8   7  -4 607.271 305.575   2
  -8   7  -5 366.876 303.810   2
  -8   7  -6 446.354 311.975   2
  -8   7  -7 889.692 337.975   2
  -8   6  13 473.026 379.194   2
  -8   6  12 725.985 397.003   2
  -8   6  11 576.508 380.310   2
  -8   6  10 1057.05 413.331   2
  -8   6   9 597.007 390.007   2
  -8   6   8 1480.65 445.581   2
  -8   6   7 2745.76 470.232   2
  -8   6   6 1586.66 413.667   2
  -8   6   5 913.545 412.016   2
  -8   6   4 880.301 402.228   2
  -8   6   3 956.334 412.025   2
  -8   6   2 1440.11 422.012   2
  -8   6   1 2476.48 493.707   2
  -8   6   0 1332.35 435.635   2
  -8   6  -1 2778.12 502.910   2
  -8   6  -2 628.154 417.726   2
  -8   6  -3 1815.16 470.227   2
  -8   6  -4 1264.50 328.546   2
  -8   6  -5 994.533 335.545   2
  -8   6  -6 252.647 298.811   2
  -8   6  -7 1368.20 374.128   2
  -8   5  13 1411.30 313.225   2
  -8   5  12 293.116 353.196   2
  -8   5  11 1395.58 413.237   2
  -8   5  10 843.709 418.209   2
  -8   5   9 1710.01 313.332   2
  -8   5   8 871.510 274.259   2
  -8   5   7 3157.44 518.372   2
  -8   5   6 981.022 409.419   2
  -8   5   5 742.241 407.569   2
  -8   5   4 61.7359 385.060   2
  -8   5   3 1665.32 438.793   2
  -8   5   2 335.066 390.129   2
  -8   5   1 1904.54 459.351   2
  -8   5   0 897.223 416.402   2
  -8   5  -1 1372.61 422.727   2
  -8   5  -2-96.3278 400.177   2
  -8   5  -3 1537.61 449.820   2
  -8   5  -4 430.687 304.151   2
  -8   5  -5 1437.35 343.367   2
  -8   5  -6 492.445 306.580   2
  -8   5  -7 418.972 334.236   2
  -8   4  14 587.581 393.866   2
  -8   4  13 32.3635 376.454   2
  -8   4  12 1748.87 329.914   2
  -8   4  11 633.259 278.256   2
  -8   4  10 1007.81 409.625   2
  -8   4   9 1338.09 295.317   2
  -8   4   8 661.937 256.161   2
  -8   4   7 1345.02 288.491   2
  -8   4   6 1954.08 293.086   2
  -8   4   5 2645.74 310.091   2
  -8   4   4 997.002 250.026   2
  -8   4   3 2451.57 292.873   2
  -8   4   2 937.731 407.275   2
  -8   4   1 1995.87 447.130   2
  -8   4   0 1393.39 414.504   2
  -8   4  -1 3320.10 513.633   2
  -8   4  -2 556.696 384.944   2
  -8   4  -3 925.076 434.346   2
  -8   4  -4 1239.55 332.040   2
  -8   4  -5 1212.88 334.494   2
  -8   4  -6 461.859 312.235   2
  -8   3  14 745.249 308.631   2
  -8   3  13 1770.58 333.013   2
  -8   3  12 82.9094 268.738   2
  -8   3  11 1264.08 413.388   2
  -8   3  10 445.955 266.789   2
  -8   3   9 2003.86 325.007   2
  -8   3   8 355.586 256.249   2
  -8   3   7 2326.40 299.097   2
  -8   3   6 896.175 266.264   2
  -8   3   5 2832.51 309.204   2
  -8   3   4 429.282 225.295   2
  -8   3   3 561.742 370.430   2
  -8   3   2 338.651 364.673   2
  -8   3   1 2033.42 445.953   2
  -8   3   0 636.893 390.772   2
  -8   3  -1 4072.99 538.236   2
  -8   3  -2 1294.50 425.772   2
  -8   3  -3 509.257 365.550   2
  -8   3  -4 469.945 310.252   2
  -8   3  -5 1018.34 310.671   2
  -8   3  -6 739.295 312.790   2
  -8   2  14 988.798 309.008   2
  -8   2  13 590.192 308.643   2
  -8   2  12 879.895 291.760   2
  -8   2  11 330.852 280.663   2
  -8   2  10 1264.76 277.961   2
  -8   2   9 1163.41 292.295   2
  -8   2   8 1767.89 292.303   2
  -8   2   7 1416.09 277.707   2
  -8   2   6 2450.20 302.511   2
  -8   2   5 801.891 244.923   2
  -8   2   4 1280.77 407.647   2
  -8   2   3 1346.36 400.343   2
  -8   2   2 2563.65 483.217   2
  -8   2   1 2966.49 503.196   2
  -8   2   0 1027.82 401.544   2
  -8   2  -1 1705.92 452.574   2
  -8   2  -2 2093.77 453.659   2
  -8   2  -3 1380.12 435.447   2
  -8   2  -4 1023.03 323.699   2
  -8   2  -5 816.914 314.846   2
  -8   1  14 510.489 279.779   2
  -8   1  13 1473.67 334.372   2
  -8   1  12 118.740 272.252   2
  -8   1  11 1809.85 297.556   2
  -8   1  10 277.411 244.162   2
  -8   1   9 1604.69 298.303   2
  -8   1   8 200.239 260.134   2
  -8   1   7 2787.16 321.188   2
  -8   1   6 212.659 237.923   2
  -8   1   5 2651.63 480.322   2
  -8   1   4 787.501 370.589   2
  -8   1   3 243.781 361.151   2
  -8   1   2 1184.14 378.538   2
  -8   1   1 691.745 405.490   2
  -8   1   0 221.758 386.694   2
  -8   1  -1 1987.44 464.469   2
  -8   1  -2 629.526 395.888   2
  -8   1  -3 390.002 376.996   2
  -8   1  -4 870.328 308.075   2
  -8   1  -5 1218.40 322.862   2
  -8   0  14 1002.10 312.217   2
  -8   0  13 509.597 293.435   2
  -8   0  12 1794.87 331.442   2
  -8   0  11 398.059 265.913   2
  -8   0  10 1278.87 312.466   2
  -8   0   9 402.327 250.662   2
  -8   0   8 1862.64 300.836   2
  -8   0   7 2007.69 295.935   2
  -8   0   6 1668.31 283.653   2
  -8   0   5 1648.43 430.635   2
  -8   0   4 1765.98 441.667   2
  -8   0   3 517.041 385.482   2
  -8   0   2 2215.89 483.144   2
  -8   0   1 719.671 381.642   2
  -8   0   0 1353.62 414.118   2
  -8   0  -1 1882.59 473.071   2
  -8   0  -2 2297.99 476.311   2
  -8   0  -3 713.767 405.206   2
  -8   0  -4 900.085 428.709   2
  -8  -1  13 1325.38 342.583   2
  -8  -1  12 403.164 295.174   2
  -8  -1  11 1662.28 329.083   2
  -8  -1  10 109.800 256.949   2
  -8  -1   9 1347.79 298.261   2
  -8  -1   8 99.6764 258.284   2
  -8  -1   7 1380.68 293.412   2
  -8  -1   6 198.532 383.885   2
  -8  -1   5 5252.50 608.403   2
  -8  -1   4 270.836 392.891   2
  -8  -1   3 1136.33 420.479   2
  -8  -1   2 599.452 387.068   2
  -8  -1   1 1470.76 455.019   2
  -8  -1   0 694.026 435.010   2
  -8  -1  -1 3592.97 571.874   2
  -8  -1  -2 976.756 475.173   2
  -8  -1  -3 1728.16 497.723   2
  -8  -2  13 1064.20 322.800   2
  -8  -2  12 855.751 307.537   2
  -8  -2  11 346.059 304.664   2
  -8  -2  10 1302.28 265.858   2
  -8  -2   9 565.672 230.728   2
  -8  -2   8 1471.32 260.308   2
  -8  -2   7 286.218 285.997   2
  -8  -2   6 1702.49 335.699   2
  -8  -2   5 520.514 284.790   2
  -8  -2   4 1839.79 331.778   2
  -8  -2   3 415.172 283.354   2
  -8  -2   2 238.109 274.921   2
  -8  -2   1 336.219 290.808   2
  -8  -2   0 575.455 441.291   2
  -8  -2  -1 783.328 431.467   2
  -8  -2  -2 2513.85 560.054   2
  -8  -3  12 585.902 265.300   2
  -8  -3  11 1537.01 292.361   2
  -8  -3  10 327.563 241.684   2
  -8  -3   9 1148.42 254.485   2
  -8  -3   8 213.378 308.132   2
  -8  -3   7 1616.62 338.660   2
  -8  -3   6 419.651 295.742   2
  -8  -3   5 1887.13 336.676   2
  -8  -3   4 492.677 316.478   2
  -8  -3   3 2003.68 336.988   2
  -8  -3   2 99.1769 287.139   2
  -8  -3   1 1141.08 313.825   2
  -8  -3   0 228.357 283.750   2
  -8  -4  10 1324.00 293.442   2
  -8  -4   9 347.161 323.482   2
  -8  -4   8 1100.02 338.369   2
  -8  -4   7 675.893 307.503   2
  -8  -4   6 1279.12 342.757   2
  -8  -4   5 551.538 315.222   2
  -8  -4   4 2764.81 391.522   2
  -8  -4   3 274.573 303.747   2
  -9   9   4-96.5938 415.114   2
  -9   9   3 219.790 441.693   2
  -9   9   2-17.9822 423.933   2
  -9   9   1 1493.36 492.844   2
  -9   8   7-39.6293 393.106   2
  -9   8   6 1325.38 455.759   2
  -9   8   5 3.43494 410.018   2
  -9   8   4 487.881 421.513   2
  -9   8   3-16.2849 416.073   2
  -9   8   2 1854.47 496.981   2
  -9   8   1 212.205 449.278   2
  -9   8   0 2091.25 573.610   2
  -9   8  -1-41.1022 453.819   2
  -9   7   8 334.814 402.952   2
  -9   7   7 628.551 415.565   2
  -9   7   6 5.62114 403.963   2
  -9   7   5 789.003 457.412   2
  -9   7   4-209.869 410.779   2
  -9   7   3 618.675 411.806   2
  -9   7   2 192.559 434.265   2
  -9   7   1 893.158 459.220   2
  -9   7   0 395.832 419.178   2
  -9   7  -1 1260.86 513.920   2
  -9   7  -2 345.630 468.791   2
  -9   6   9 456.231 286.410   2
  -9   6   8 1039.58 296.172   2
  -9   6   7 23.0423 277.114   2
  -9   6   6 1571.36 322.242   2
  -9   6   5 466.159 269.375   2
  -9   6   4 218.522 428.011   2
  -9   6   3 104.423 415.895   2
  -9   6   2 421.113 440.028   2
  -9   6   1 250.372 420.369   2
  -9   6   0 2564.26 531.696   2
  -9   6  -1 253.626 422.394   2
  -9   6  -2 315.181 446.687   2
  -9   5  10 24.4764 303.623   2
  -9   5   9 1855.87 347.302   2
  -9   5   8 315.934 262.754   2
  -9   5   7 784.719 302.925   2
  -9   5   6 122.754 268.954   2
  -9   5   5 517.114 423.051   2
  -9   5   4-64.9069 440.173   2
  -9   5   3 603.998 431.510   2
  -9   5   2 188.460 423.935   2
  -9   5   1 1808.94 519.373   2
  -9   5   0 20.7500 426.287   2
  -9   5  -1 2281.63 523.842   2
  -9   5  -2 309.520 417.956   2
  -9   4  10 1377.73 339.367   2
  -9   4   9 20.6308 280.101   2
  -9   4   8 1793.12 332.259   2
  -9   4   7 289.136 271.906   2
  -9   4   6 816.113 459.598   2
  -9   4   5 273.327 404.575   2
  -9   4   4 1007.69 455.885   2
  -9   4   3-202.327 431.895   2
  -9   4   2 766.077 452.008   2
  -9   4   1 366.673 422.109   2
  -9   4   0 1196.52 468.244   2
  -9   4  -1 143.208 444.519   2
  -9   4  -2 2377.71 546.052   2
  -9   3  10 84.6281 279.349   2
  -9   3   9 1976.50 341.423   2
  -9   3   8 302.282 279.515   2
  -9   3   7 1136.08 433.087   2
  -9   3   6 96.1610 424.787   2
  -9   3   5 183.082 422.273   2
  -9   3   4 35.6716 426.467   2
  -9   3   3 1304.47 465.981   2
  -9   3   2 365.250 426.145   2
  -9   3   1 515.997 439.684   2
  -9   3   0 408.966 407.334   2
  -9   3  -1 2057.20 521.573   2
  -9   2  10 900.374 328.506   2
  -9   2   9 222.139 277.750   2
  -9   2   8 1673.49 327.466   2
  -9   2   7-205.552 408.317   2
  -9   2   6 1498.91 485.090   2
  -9   2   5 112.819 431.742   2
  -9   2   4 1098.90 462.599   2
  -9   2   3 70.9663 412.406   2
  -9   2   2 332.509 429.193   2
  -9   2   1 150.144 412.905   2
  -9   2   0 1697.39 491.894   2
  -9   1  10 66.0370 293.085   2
  -9   1   9 1312.77 311.709   2
  -9   1   8 168.801 411.177   2
  -9   1   7 1847.45 495.646   2
  -9   1   6 558.158 427.929   2
  -9   1   5 1246.32 475.221   2
  -9   1   4-69.5860 422.731   2
  -9   1   3 467.248 413.947   2
  -9   1   2 94.4225 425.615   2
  -9   1   1 644.686 460.468   2
  -9   0   9 265.238 426.303   2
  -9   0   8 1306.67 480.158   2
  -9   0   7 92.4077 445.502   2
  -9   0   6 1533.83 478.330   2
  -9   0   5 63.3403 409.641   2
  -9   0   4 492.757 419.306   2
  -9   0   3 183.439 416.204   2
  -9   0   2 1883.47 508.165   2
   0   0   0 0.00000 0.00000   0
TITL JL21026Mo-P1-twin-mask0p75_inverted_twin1_hklf4 in P1
REM P1 (#1 in standard setting)
CELL 0.71073   7.920420  13.398214  16.923744 100.6794 102.8293 106.1128
ZERR    1.00   0.000739   0.001294   0.001537   0.0079   0.0078   0.0083
LATT -1
SFAC C H N O Cl Au
UNIT 40.00 41.00 4.00 4.00 24.00 2.00
REM  CrysAlisPro recorded range (K): Min=120.0; max=120.1; aver:120.0
TEMP -153
SIZE 0.04 0.13 0.15
TREF
HKLF 5

BASF 0.50377
END
;
_shelx_hkl_checksum                53824
_olex2_diffrn_ambient_temperature_device  'Oxford Cryosystems Cryostream 700+'
_olex2_exptl_crystal_mounting_method 
 'The crystal was mounted on a MITIGEN holder in Paratone oil'
_olex2_submission_original_sample_id  LK-3-161-B
_olex2_submission_special_instructions  'No special instructions were received'
_oxdiff_exptl_absorpt_empirical_details
;
Empirical correction (ABSPACK) includes:
- Absorption correction using spherical harmonics
- Frame scaling
;
_oxdiff_exptl_absorpt_empirical_full_max  2.009
_oxdiff_exptl_absorpt_empirical_full_min  0.789
_oxdiff_twin_integration_method    simultaneous
_oxdiff_twin_items                 2
loop_
  _twin_individual_id
  _twin_individual_mass_fraction_refined
  _oxdiff_twin_reflns_isolated
  _oxdiff_twin_reflns_overlapped
  _twin_individual_twin_lattice_type
  _twin_individual_twin_matrix_11
  _twin_individual_twin_matrix_12
  _twin_individual_twin_matrix_13
  _twin_individual_twin_matrix_21
  _twin_individual_twin_matrix_22
  _twin_individual_twin_matrix_23
  _twin_individual_twin_matrix_31
  _twin_individual_twin_matrix_32
  _twin_individual_twin_matrix_33
 1 0.4909(11) 12581 12301 ref 1.0000 0.0000 0.0000 0.0000 1.0000 0.0000 0.0000
 0.0000 1.0000
 2 0.5091(11) 12560 12301 nmt 1.0002 -0.0002 -0.0001 -0.9328 -0.9998 -0.0000
 -0.9414 -0.0006 -1.0005

_twin_special_details
;
Component 2 rotated by -179.9717\% 
around [0.83 -0.39 -0.39] (reciprocal) or [1.00 -0.00 0.00] (direct)
;
_vrf_PLAT342_jl21026
;
PROBLEM: Low Bond Precision on  C-C Bonds ...............    0.03433 Ang.  
RESPONSE: Weak data, twinned.
;
_vrf_PLAT987_jl21026
;
PROBLEM: The Flack x is >> 0 -  Do a BASF/TWIN Refinement     Please Check 
RESPONSE: HKLF5 reflection file.
;
