####################################################################### 
# 
# This file contains crystal structure data downloaded from the 
# Cambridge Structural Database (CSD) hosted by the Cambridge 
# Crystallographic Data Centre (CCDC).
# 
# Full information about CCDC data access policies and citation 
# guidelines are available at http://www.ccdc.cam.ac.uk/access/V1 
# 
# Audit and citation data items may have been added by the CCDC. 
# Please retain this information to preserve the provenance of 
# this file and to allow appropriate attribution of the data. 
# 
#######################################################################

data_jl20018x1_refinalized
_audit_block_doi                 10.5517/ccdc.csd.cc27ytdf
_database_code_depnum_ccdc_archive 'CCDC 2084235'
loop_
_citation_id
_citation_doi
_citation_year
1 10.1038/s41467-021-26563-7 2021
loop_
_audit_author_name
_audit_author_address
'Luke Kinsman'
;University of Edinburgh
United Kingdom
;
_audit_update_record             
;
2021-08-10 deposited with the CCDC.	2022-09-21 downloaded from the CCDC.
;
_audit_creation_date             2021-07-21
_audit_creation_method           
;
Olex2 1.3-beta
(compiled 2020.11.12 svn.r5f609507 for OlexSys, GUI svn.r6272)
;
_shelx_SHELXL_version_number     2018/3
_chemical_name_common            ?
_chemical_name_systematic        ?
_chemical_formula_moiety         'Cl6 Sn, 2(C18 H21 N2 O2), 1.265(H2 O)'
_chemical_formula_sum            'C36 H44.53 Cl6 N4 O5.26 Sn'
_chemical_formula_weight         948.83
_chemical_melting_point          ?
loop_
_atom_type_symbol
_atom_type_description
_atom_type_scat_dispersion_real
_atom_type_scat_dispersion_imag
_atom_type_scat_source
C C 0.0033 0.0016 'International Tables Vol C Tables 4.2.6.8 and 6.1.1.4'
H H 0.0000 0.0000 'International Tables Vol C Tables 4.2.6.8 and 6.1.1.4'
Cl Cl 0.1484 0.1585 'International Tables Vol C Tables 4.2.6.8 and 6.1.1.4'
N N 0.0061 0.0033 'International Tables Vol C Tables 4.2.6.8 and 6.1.1.4'
O O 0.0106 0.0060 'International Tables Vol C Tables 4.2.6.8 and 6.1.1.4'
Sn Sn -0.6537 1.4246 'International Tables Vol C Tables 4.2.6.8 and 6.1.1.4'

_shelx_space_group_comment       
;
The symmetry employed for this shelxl refinement is uniquely defined
by the following loop, which should always be used as a source of
symmetry information in preference to the above space-group names.
They are only intended as comments.
;
_space_group_crystal_system      triclinic
_space_group_IT_number           2
_space_group_name_H-M_alt        'P -1'
_space_group_name_Hall           '-P 1'
loop_
_space_group_symop_operation_xyz
'x, y, z'
'-x, -y, -z'

_cell_length_a                   8.7720(4)
_cell_length_b                   11.1752(5)
_cell_length_c                   12.0751(6)
_cell_angle_alpha                113.632(4)
_cell_angle_beta                 103.282(4)
_cell_angle_gamma                97.177(4)
_cell_volume                     1023.69(9)
_cell_formula_units_Z            1
_cell_measurement_reflns_used    6498
_cell_measurement_temperature    120.0
_cell_measurement_theta_max      28.1900
_cell_measurement_theta_min      3.8620
_shelx_estimated_absorpt_T_max   ?
_shelx_estimated_absorpt_T_min   ?
_exptl_absorpt_coefficient_mu    1.062
_exptl_absorpt_correction_T_max  1.00000
_exptl_absorpt_correction_T_min  0.53296
_exptl_absorpt_correction_type   multi-scan
_exptl_absorpt_process_details   
;
CrysAlisPro 1.171.40.84a (Rigaku Oxford Diffraction, 2020)
Empirical absorption correction using spherical harmonics,
implemented in SCALE3 ABSPACK scaling algorithm.
;
_exptl_absorpt_special_details   ?
_exptl_crystal_colour            colourless
_exptl_crystal_colour_primary    colourless
_exptl_crystal_density_diffrn    1.539
_exptl_crystal_density_meas      ?
_exptl_crystal_density_method    ?
_exptl_crystal_description       plate
_exptl_crystal_F_000             483
loop_
_exptl_crystal_face_index_h
_exptl_crystal_face_index_k
_exptl_crystal_face_index_l
_exptl_crystal_face_perp_dist
0 7 10 0.0673
-12 2 1 0.0609
0 -7 -10 0.0523
11 -1 1 0.0839
0 14 -14 0.0180
0 -14 14 0.0180

_exptl_crystal_size_max          0.187
_exptl_crystal_size_mid          0.121
_exptl_crystal_size_min          0.036
_exptl_transmission_factor_max   ?
_exptl_transmission_factor_min   ?
_diffrn_reflns_av_R_equivalents  0.0628
_diffrn_reflns_av_unetI/netI     0.0734
_diffrn_reflns_Laue_measured_fraction_full 0.998
_diffrn_reflns_Laue_measured_fraction_max 0.885
_diffrn_reflns_limit_h_max       12
_diffrn_reflns_limit_h_min       -10
_diffrn_reflns_limit_k_max       14
_diffrn_reflns_limit_k_min       -15
_diffrn_reflns_limit_l_max       16
_diffrn_reflns_limit_l_min       -15
_diffrn_reflns_number            18433
_diffrn_reflns_point_group_measured_fraction_full 0.998
_diffrn_reflns_point_group_measured_fraction_max 0.885
_diffrn_reflns_theta_full        25.242
_diffrn_reflns_theta_max         29.796
_diffrn_reflns_theta_min         3.309
_diffrn_ambient_temperature      120.0
_diffrn_detector_area_resol_mean 5.1574
_diffrn_detector_type            Atlas
_diffrn_measured_fraction_theta_full 0.998
_diffrn_measured_fraction_theta_max 0.885
_diffrn_measurement_details      
;
List of Runs (angles in degrees, time in seconds):

  # Type    Start    End  Width  t~exp~   \w     \q     \k     \f   Frames
#--------------------------------------------------------------------------
  1  \w    -16.00  81.00   1.00   10.00    --   10.84  58.00  -6.00   97
  2  \w    -59.00  38.00   1.00   10.00    --   10.84 -58.00-146.00   97
  3  \w    -15.00  30.00   1.00   10.00    --   -9.43 -99.00  90.00   45
  4  \w    -42.00  22.00   1.00   10.00    --   -9.43 -77.00 -90.00   64
  5  \w    -41.00  21.00   1.00   10.00    --   -9.43  77.00  60.00   62
  6  \w    -26.00  89.00   1.00   10.00    --   10.84  19.00   0.00  115
  7  \w    -59.00  37.00   1.00   10.00    --   10.84 -57.00-180.00   96
  8  \w    -42.00  -1.00   1.00   10.00    --   10.84 -77.00 -30.00   41
;
_diffrn_measurement_device       'four-circle diffractometer'
_diffrn_measurement_device_type  'Rigaku Oxford Diffraction SuperNova'
_diffrn_measurement_method       '\w scans'
_diffrn_radiation_type           MoK\a
_diffrn_radiation_wavelength     0.71073
_diffrn_source                   ?
_reflns_Friedel_coverage         0.000
_reflns_Friedel_fraction_full    .
_reflns_Friedel_fraction_max     .
_reflns_number_gt                4332
_reflns_number_total             5179
_reflns_special_details          
;
 Reflections were merged by SHELXL according to the crystal
 class for the calculation of statistics and refinement.
 
 _reflns_Friedel_fraction is defined as the number of unique
 Friedel pairs measured divided by the number that would be
 possible theoretically, ignoring centric projections and
 systematic absences.
;
_reflns_threshold_expression     'I > 2\s(I)'
_computing_cell_refinement       'CrysAlisPro 1.171.40.84a (Rigaku OD, 2020)'
_computing_data_collection       'CrysAlisPro 1.171.40.84a (Rigaku OD, 2020)'
_computing_data_reduction        'CrysAlisPro 1.171.40.84a (Rigaku OD, 2020)'
_computing_molecular_graphics    'Olex2 1.3-beta (Dolomanov et al., 2009)'
_computing_publication_material  'Olex2 1.3-beta (Dolomanov et al., 2009)'
_computing_structure_refinement  'SHELXL 2018/3 (Sheldrick, 2015)'
_computing_structure_solution    'SHELXT 2018/2 (Sheldrick, 2018)'
_refine_diff_density_max         0.706
_refine_diff_density_min         -0.588
_refine_diff_density_rms         0.117
_refine_ls_extinction_coef       .
_refine_ls_extinction_method     none
_refine_ls_goodness_of_fit_ref   1.046
_refine_ls_hydrogen_treatment    mixed
_refine_ls_matrix_type           full
_refine_ls_number_parameters     258
_refine_ls_number_reflns         5179
_refine_ls_number_restraints     4
_refine_ls_R_factor_all          0.0559
_refine_ls_R_factor_gt           0.0407
_refine_ls_restrained_S_all      1.046
_refine_ls_shift/su_max          0.000
_refine_ls_shift/su_mean         0.000
_refine_ls_structure_factor_coef Fsqd
_refine_ls_weighting_details     
'w=1/[\s^2^(Fo^2^)+(0.0127P)^2^+0.3123P] where P=(Fo^2^+2Fc^2^)/3'
_refine_ls_weighting_scheme      calc
_refine_ls_wR_factor_gt          0.0629
_refine_ls_wR_factor_ref         0.0699
_refine_special_details          
;
H atoms were modelled with restraints. H1 and H2 are disordered over an inversion centre.  The water molecule was modelled as part occupied by means of a free variable.

#===============================================================================
#>>> The Following Improvement and Query ALERTS were generated - (Acta-Mode) <<<
#===============================================================================
     Format: alert-number_ALERT_alert-type_alert-level text

077_ALERT_4_C Unitcell Contains Non-integer Number of Atoms ..     Please Check
906_ALERT_3_C Large K Value in the Analysis of Variance ......      2.217 Check
910_ALERT_3_C Missing # of FCF Reflection(s) Below Theta(Min).          7 Note
973_ALERT_2_C Check Calcd Positive Resid. Density on       Sn1       1.06 eA-3

Not significant

#===============================================================================
;
_olex2_refinement_description    
;
1. Fixed Uiso
 At 1.2 times of:
  All C(H) groups, All C(H,H) groups, All O(H) groups
 At 1.5 times of:
  All C(H,H,H) groups
2. Restrained distances
 O3-H3A = O3-H3B
 0.84 with sigma of 0.02
 O1-H1
 0.84 with sigma of 0.02
 O2-H2
 0.84 with sigma of 0.02
3. Others
 Sof(O3)=Sof(H3A)=Sof(H3B)=FVAR(1)
 Fixed Sof: H1(0.5) H2(0.5)
4.a Secondary CH2 refined with riding coordinates:
 C9(H9A,H9B), C10(H10A,H10B)
4.b Aromatic/amide H refined with riding coordinates:
 C1(H1A), C2(H2A), C3(H3), C4(H4), C5(H5), C14(H14), C15(H15), C16(H16),
 C17(H17), C18(H18)
4.c Idealised Me refined as rotating group:
 C8(H8A,H8B,H8C), C11(H11A,H11B,H11C)
;
_atom_sites_solution_hydrogens   mixed
_atom_sites_solution_primary     ?
_atom_sites_solution_secondary   ?
loop_
_atom_site_label
_atom_site_type_symbol
_atom_site_fract_x
_atom_site_fract_y
_atom_site_fract_z
_atom_site_U_iso_or_equiv
_atom_site_adp_type
_atom_site_occupancy
_atom_site_site_symmetry_order
_atom_site_calc_flag
_atom_site_refinement_flags_posn
_atom_site_refinement_flags_adp
_atom_site_refinement_flags_occupancy
_atom_site_disorder_assembly
_atom_site_disorder_group
Sn1 Sn 0.000000 0.000000 0.000000 0.01218(7) Uani 1 2 d S . P . .
Cl1 Cl 0.10835(8) 0.15784(7) 0.22546(6) 0.02087(16) Uani 1 1 d . . . . .
Cl2 Cl 0.14473(8) -0.15990(7) 0.03840(6) 0.02030(15) Uani 1 1 d . . . . .
Cl3 Cl -0.22822(7) -0.10058(6) 0.04191(6) 0.01928(15) Uani 1 1 d . . . . .
O1 O 0.4681(2) 0.59969(18) 0.57245(16) 0.0179(4) Uani 1 1 d D . . . .
H1 H 0.483(8) 0.528(4) 0.522(5) 0.022 Uiso 0.5 1 d D U P A -1
O2 O 0.1093(2) 0.58804(19) 0.58900(16) 0.0195(4) Uani 1 1 d D . . . .
H2 H 0.034(6) 0.525(5) 0.531(5) 0.023 Uiso 0.5 1 d D U P B -1
N1 N 0.3927(2) 0.7921(2) 0.60684(18) 0.0151(5) Uani 1 1 d . . . . .
N2 N 0.2946(2) 0.6586(2) 0.77790(18) 0.0142(5) Uani 1 1 d . . . . .
C1 C 0.2696(3) 0.5073(3) 0.3045(2) 0.0183(6) Uani 1 1 d . . . . .
H1A H 0.229457 0.447997 0.335446 0.022 Uiso 1 1 calc R U . . .
C2 C 0.2325(3) 0.4666(3) 0.1749(2) 0.0228(6) Uani 1 1 d . . . . .
H2A H 0.165532 0.379676 0.116815 0.027 Uiso 1 1 calc R U . . .
C3 C 0.2922(4) 0.5513(3) 0.1300(3) 0.0277(7) Uani 1 1 d . . . . .
H3 H 0.265269 0.522910 0.041036 0.033 Uiso 1 1 calc R U . . .
C4 C 0.3921(4) 0.6790(3) 0.2139(2) 0.0268(7) Uani 1 1 d . . . . .
H4 H 0.435180 0.736856 0.182682 0.032 Uiso 1 1 calc R U . . .
C5 C 0.4275(3) 0.7200(3) 0.3437(2) 0.0214(6) Uani 1 1 d . . . . .
H5 H 0.494585 0.806893 0.401802 0.026 Uiso 1 1 calc R U . . .
C6 C 0.3659(3) 0.6355(3) 0.3891(2) 0.0153(6) Uani 1 1 d . . . . .
C7 C 0.4098(3) 0.6755(3) 0.5278(2) 0.0148(5) Uani 1 1 d . . . . .
C8 C 0.2984(3) 0.8745(3) 0.5668(3) 0.0246(7) Uani 1 1 d . . . . .
H8A H 0.371390 0.955677 0.578799 0.037 Uiso 1 1 calc R U . . .
H8B H 0.225311 0.900413 0.617929 0.037 Uiso 1 1 calc R U . . .
H8C H 0.235195 0.822877 0.476926 0.037 Uiso 1 1 calc R U . . .
C9 C 0.4514(3) 0.8382(3) 0.7453(2) 0.0172(6) Uani 1 1 d . . . . .
H9A H 0.491841 0.937402 0.788140 0.021 Uiso 1 1 calc R U . . .
H9B H 0.542888 0.798921 0.765443 0.021 Uiso 1 1 calc R U . . .
C10 C 0.3212(3) 0.7992(3) 0.7971(2) 0.0160(6) Uani 1 1 d . . . . .
H10A H 0.351717 0.859510 0.889233 0.019 Uiso 1 1 calc R U . . .
H10B H 0.218631 0.813272 0.755338 0.019 Uiso 1 1 calc R U . . .
C11 C 0.4074(3) 0.6357(3) 0.8729(2) 0.0209(6) Uani 1 1 d . . . . .
H11A H 0.517827 0.681567 0.886932 0.031 Uiso 1 1 calc R U . . .
H11B H 0.398923 0.538846 0.842541 0.031 Uiso 1 1 calc R U . . .
H11C H 0.381089 0.671292 0.952778 0.031 Uiso 1 1 calc R U . . .
C12 C 0.1834(3) 0.5615(3) 0.6771(2) 0.0149(6) Uani 1 1 d . . . . .
C13 C 0.1470(3) 0.4251(3) 0.6700(2) 0.0157(6) Uani 1 1 d . . . . .
C14 C 0.1638(3) 0.3143(3) 0.5707(2) 0.0215(6) Uani 1 1 d . . . . .
H14 H 0.193816 0.324620 0.503695 0.026 Uiso 1 1 calc R U . . .
C15 C 0.1371(3) 0.1887(3) 0.5692(3) 0.0298(7) Uani 1 1 d . . . . .
H15 H 0.150291 0.113266 0.501898 0.036 Uiso 1 1 calc R U . . .
C16 C 0.0913(3) 0.1736(3) 0.6654(3) 0.0318(7) Uani 1 1 d . . . . .
H16 H 0.074784 0.087709 0.664876 0.038 Uiso 1 1 calc R U . . .
C17 C 0.0690(3) 0.2821(3) 0.7627(3) 0.0293(7) Uani 1 1 d . . . . .
H17 H 0.034551 0.270338 0.827578 0.035 Uiso 1 1 calc R U . . .
C18 C 0.0969(3) 0.4073(3) 0.7651(2) 0.0209(6) Uani 1 1 d . . . . .
H18 H 0.081996 0.482044 0.832010 0.025 Uiso 1 1 calc R U . . .
O3 O 0.3063(4) -0.0048(4) 0.3544(3) 0.0280(12) Uani 0.632(7) 1 d D . P . .
H3A H 0.282(7) -0.082(3) 0.296(4) 0.06(2) Uiso 0.632(7) 1 d D . P . .
H3B H 0.259(7) 0.046(5) 0.332(5) 0.07(2) Uiso 0.632(7) 1 d D . P . .

loop_
_atom_site_aniso_label
_atom_site_aniso_U_11
_atom_site_aniso_U_22
_atom_site_aniso_U_33
_atom_site_aniso_U_23
_atom_site_aniso_U_13
_atom_site_aniso_U_12
Sn1 0.01141(13) 0.01024(13) 0.01281(13) 0.00326(10) 0.00366(9) 0.00223(10)
Cl1 0.0205(3) 0.0193(4) 0.0152(3) 0.0019(3) 0.0037(3) 0.0031(3)
Cl2 0.0214(3) 0.0202(4) 0.0243(3) 0.0121(3) 0.0095(3) 0.0094(3)
Cl3 0.0170(3) 0.0164(3) 0.0231(3) 0.0071(3) 0.0079(3) 0.0019(3)
O1 0.0236(10) 0.0175(10) 0.0168(10) 0.0084(8) 0.0080(8) 0.0121(9)
O2 0.0165(10) 0.0192(11) 0.0177(10) 0.0088(8) -0.0022(7) -0.0005(8)
N1 0.0167(11) 0.0131(12) 0.0154(11) 0.0055(9) 0.0050(9) 0.0054(9)
N2 0.0118(10) 0.0151(12) 0.0147(11) 0.0060(9) 0.0035(8) 0.0028(9)
C1 0.0180(14) 0.0161(14) 0.0190(14) 0.0064(11) 0.0039(11) 0.0063(11)
C2 0.0216(15) 0.0198(16) 0.0202(14) 0.0048(12) 0.0011(11) 0.0062(12)
C3 0.0352(17) 0.0330(18) 0.0132(14) 0.0086(13) 0.0047(12) 0.0137(15)
C4 0.0357(18) 0.0298(18) 0.0229(15) 0.0175(13) 0.0121(13) 0.0083(14)
C5 0.0247(15) 0.0168(15) 0.0208(14) 0.0081(12) 0.0044(11) 0.0049(12)
C6 0.0148(13) 0.0161(14) 0.0144(13) 0.0057(11) 0.0041(10) 0.0066(11)
C7 0.0111(12) 0.0158(14) 0.0178(13) 0.0079(11) 0.0048(10) 0.0024(11)
C8 0.0343(17) 0.0197(16) 0.0230(15) 0.0100(12) 0.0090(12) 0.0156(13)
C9 0.0193(14) 0.0109(13) 0.0161(13) 0.0028(11) 0.0029(10) 0.0015(11)
C10 0.0186(13) 0.0113(13) 0.0146(13) 0.0023(10) 0.0053(10) 0.0035(11)
C11 0.0185(14) 0.0199(15) 0.0193(14) 0.0081(12) -0.0005(11) 0.0022(12)
C12 0.0126(12) 0.0180(14) 0.0137(13) 0.0053(11) 0.0061(10) 0.0047(11)
C13 0.0105(12) 0.0150(14) 0.0174(13) 0.0063(11) 0.0000(10) 0.0008(10)
C14 0.0169(14) 0.0200(16) 0.0222(14) 0.0053(12) 0.0051(11) 0.0029(12)
C15 0.0262(16) 0.0140(15) 0.0372(18) 0.0034(13) 0.0036(13) 0.0044(13)
C16 0.0205(16) 0.0220(17) 0.050(2) 0.0208(15) -0.0019(14) 0.0019(13)
C17 0.0225(16) 0.0341(19) 0.0333(17) 0.0225(15) 0.0021(13) -0.0006(14)
C18 0.0166(14) 0.0226(16) 0.0208(14) 0.0093(12) 0.0022(11) 0.0035(12)
O3 0.036(2) 0.023(2) 0.0220(19) 0.0103(16) 0.0027(15) 0.0077(17)

_geom_special_details            
;
 All esds (except the esd in the dihedral angle between two l.s. planes)
 are estimated using the full covariance matrix.  The cell esds are taken
 into account individually in the estimation of esds in distances, angles
 and torsion angles; correlations between esds in cell parameters are only
 used when they are defined by crystal symmetry.  An approximate (isotropic)
 treatment of cell esds is used for estimating esds involving l.s. planes.
;
loop_
_geom_bond_atom_site_label_1
_geom_bond_atom_site_label_2
_geom_bond_distance
_geom_bond_site_symmetry_2
_geom_bond_publ_flag
Sn1 Cl1 2.4431(6) . ?
Sn1 Cl1 2.4431(6) 2 ?
Sn1 Cl2 2.4455(7) . ?
Sn1 Cl2 2.4455(7) 2 ?
Sn1 Cl3 2.4262(7) 2 ?
Sn1 Cl3 2.4262(7) . ?
O1 H1 0.838(19) . ?
O1 C7 1.273(3) . ?
O2 H2 0.834(19) . ?
O2 C12 1.275(3) . ?
N1 C7 1.322(3) . ?
N1 C8 1.459(3) . ?
N1 C9 1.475(3) . ?
N2 C10 1.473(3) . ?
N2 C11 1.461(3) . ?
N2 C12 1.319(3) . ?
C1 H1A 0.9500 . ?
C1 C2 1.387(4) . ?
C1 C6 1.392(4) . ?
C2 H2A 0.9500 . ?
C2 C3 1.371(4) . ?
C3 H3 0.9500 . ?
C3 C4 1.397(4) . ?
C4 H4 0.9500 . ?
C4 C5 1.389(4) . ?
C5 H5 0.9500 . ?
C5 C6 1.381(4) . ?
C6 C7 1.487(3) . ?
C8 H8A 0.9800 . ?
C8 H8B 0.9800 . ?
C8 H8C 0.9800 . ?
C9 H9A 0.9900 . ?
C9 H9B 0.9900 . ?
C9 C10 1.519(4) . ?
C10 H10A 0.9900 . ?
C10 H10B 0.9900 . ?
C11 H11A 0.9800 . ?
C11 H11B 0.9800 . ?
C11 H11C 0.9800 . ?
C12 C13 1.481(4) . ?
C13 C14 1.390(3) . ?
C13 C18 1.394(4) . ?
C14 H14 0.9500 . ?
C14 C15 1.385(4) . ?
C15 H15 0.9500 . ?
C15 C16 1.376(4) . ?
C16 H16 0.9500 . ?
C16 C17 1.383(4) . ?
C17 H17 0.9500 . ?
C17 C18 1.378(4) . ?
C18 H18 0.9500 . ?
O3 H3A 0.83(2) . ?
O3 H3B 0.83(2) . ?

loop_
_geom_angle_atom_site_label_1
_geom_angle_atom_site_label_2
_geom_angle_atom_site_label_3
_geom_angle
_geom_angle_site_symmetry_1
_geom_angle_site_symmetry_3
_geom_angle_publ_flag
Cl1 Sn1 Cl1 180.0 . 2 ?
Cl1 Sn1 Cl2 90.23(2) . . ?
Cl1 Sn1 Cl2 89.78(2) 2 . ?
Cl1 Sn1 Cl2 90.22(2) 2 2 ?
Cl1 Sn1 Cl2 89.77(2) . 2 ?
Cl2 Sn1 Cl2 180.0 2 . ?
Cl3 Sn1 Cl1 89.25(2) . . ?
Cl3 Sn1 Cl1 89.25(2) 2 2 ?
Cl3 Sn1 Cl1 90.75(2) . 2 ?
Cl3 Sn1 Cl1 90.75(2) 2 . ?
Cl3 Sn1 Cl2 89.32(2) . . ?
Cl3 Sn1 Cl2 90.68(2) 2 . ?
Cl3 Sn1 Cl2 90.68(2) . 2 ?
Cl3 Sn1 Cl2 89.32(2) 2 2 ?
Cl3 Sn1 Cl3 180.0 2 . ?
C7 O1 H1 118(5) . . ?
C12 O2 H2 115(5) . . ?
C7 N1 C8 124.0(2) . . ?
C7 N1 C9 120.5(2) . . ?
C8 N1 C9 114.95(19) . . ?
C11 N2 C10 114.8(2) . . ?
C12 N2 C10 121.2(2) . . ?
C12 N2 C11 123.8(2) . . ?
C2 C1 H1A 120.2 . . ?
C2 C1 C6 119.6(3) . . ?
C6 C1 H1A 120.2 . . ?
C1 C2 H2A 119.9 . . ?
C3 C2 C1 120.3(3) . . ?
C3 C2 H2A 119.9 . . ?
C2 C3 H3 119.7 . . ?
C2 C3 C4 120.7(3) . . ?
C4 C3 H3 119.7 . . ?
C3 C4 H4 120.6 . . ?
C5 C4 C3 118.9(3) . . ?
C5 C4 H4 120.6 . . ?
C4 C5 H5 119.7 . . ?
C6 C5 C4 120.5(3) . . ?
C6 C5 H5 119.7 . . ?
C1 C6 C7 118.9(2) . . ?
C5 C6 C1 120.0(2) . . ?
C5 C6 C7 121.0(2) . . ?
O1 C7 N1 119.0(2) . . ?
O1 C7 C6 120.5(2) . . ?
N1 C7 C6 120.5(2) . . ?
N1 C8 H8A 109.5 . . ?
N1 C8 H8B 109.5 . . ?
N1 C8 H8C 109.5 . . ?
H8A C8 H8B 109.5 . . ?
H8A C8 H8C 109.5 . . ?
H8B C8 H8C 109.5 . . ?
N1 C9 H9A 109.1 . . ?
N1 C9 H9B 109.1 . . ?
N1 C9 C10 112.7(2) . . ?
H9A C9 H9B 107.8 . . ?
C10 C9 H9A 109.1 . . ?
C10 C9 H9B 109.1 . . ?
N2 C10 C9 113.6(2) . . ?
N2 C10 H10A 108.8 . . ?
N2 C10 H10B 108.8 . . ?
C9 C10 H10A 108.8 . . ?
C9 C10 H10B 108.8 . . ?
H10A C10 H10B 107.7 . . ?
N2 C11 H11A 109.5 . . ?
N2 C11 H11B 109.5 . . ?
N2 C11 H11C 109.5 . . ?
H11A C11 H11B 109.5 . . ?
H11A C11 H11C 109.5 . . ?
H11B C11 H11C 109.5 . . ?
O2 C12 N2 119.1(2) . . ?
O2 C12 C13 121.8(2) . . ?
N2 C12 C13 119.1(2) . . ?
C14 C13 C12 121.1(2) . . ?
C14 C13 C18 119.2(3) . . ?
C18 C13 C12 119.7(2) . . ?
C13 C14 H14 119.9 . . ?
C15 C14 C13 120.2(3) . . ?
C15 C14 H14 119.9 . . ?
C14 C15 H15 120.1 . . ?
C16 C15 C14 119.8(3) . . ?
C16 C15 H15 120.1 . . ?
C15 C16 H16 119.6 . . ?
C15 C16 C17 120.7(3) . . ?
C17 C16 H16 119.6 . . ?
C16 C17 H17 120.2 . . ?
C18 C17 C16 119.6(3) . . ?
C18 C17 H17 120.2 . . ?
C13 C18 H18 119.8 . . ?
C17 C18 C13 120.5(3) . . ?
C17 C18 H18 119.8 . . ?
H3A O3 H3B 112(6) . . ?

loop_
_geom_hbond_atom_site_label_D
_geom_hbond_atom_site_label_H
_geom_hbond_atom_site_label_A
_geom_hbond_distance_DH
_geom_hbond_distance_HA
_geom_hbond_distance_DA
_geom_hbond_angle_DHA
_geom_hbond_site_symmetry_A
_geom_hbond_publ_flag
O1 H1 O1 0.838(19) 1.61(2) 2.444(3) 174(7) 2_666 yes
O2 H2 O2 0.834(19) 1.61(2) 2.437(3) 174(8) 2_566 yes
O3 H3A Cl2 0.83(2) 2.78(5) 3.343(3) 126(5) . yes
O3 H3B Cl1 0.83(2) 2.43(2) 3.250(4) 169(6) . yes

loop_
_geom_torsion_atom_site_label_1
_geom_torsion_atom_site_label_2
_geom_torsion_atom_site_label_3
_geom_torsion_atom_site_label_4
_geom_torsion
_geom_torsion_site_symmetry_1
_geom_torsion_site_symmetry_2
_geom_torsion_site_symmetry_3
_geom_torsion_site_symmetry_4
_geom_torsion_publ_flag
O2 C12 C13 C14 59.2(3) . . . . ?
O2 C12 C13 C18 -121.6(3) . . . . ?
N1 C9 C10 N2 80.0(3) . . . . ?
N2 C12 C13 C14 -121.3(3) . . . . ?
N2 C12 C13 C18 57.9(3) . . . . ?
C1 C2 C3 C4 0.6(4) . . . . ?
C1 C6 C7 O1 50.2(3) . . . . ?
C1 C6 C7 N1 -131.6(3) . . . . ?
C2 C1 C6 C5 -1.7(4) . . . . ?
C2 C1 C6 C7 -177.6(2) . . . . ?
C2 C3 C4 C5 -1.3(4) . . . . ?
C3 C4 C5 C6 0.5(4) . . . . ?
C4 C5 C6 C1 1.0(4) . . . . ?
C4 C5 C6 C7 176.8(2) . . . . ?
C5 C6 C7 O1 -125.7(3) . . . . ?
C5 C6 C7 N1 52.6(3) . . . . ?
C6 C1 C2 C3 0.9(4) . . . . ?
C7 N1 C9 C10 -93.5(3) . . . . ?
C8 N1 C7 O1 -166.9(2) . . . . ?
C8 N1 C7 C6 14.8(4) . . . . ?
C8 N1 C9 C10 78.7(3) . . . . ?
C9 N1 C7 O1 4.5(4) . . . . ?
C9 N1 C7 C6 -173.8(2) . . . . ?
C10 N2 C12 O2 7.2(3) . . . . ?
C10 N2 C12 C13 -172.3(2) . . . . ?
C11 N2 C10 C9 82.7(3) . . . . ?
C11 N2 C12 O2 -168.2(2) . . . . ?
C11 N2 C12 C13 12.3(3) . . . . ?
C12 N2 C10 C9 -93.0(3) . . . . ?
C12 C13 C14 C15 176.7(2) . . . . ?
C12 C13 C18 C17 -177.3(2) . . . . ?
C13 C14 C15 C16 1.0(4) . . . . ?
C14 C13 C18 C17 1.9(4) . . . . ?
C14 C15 C16 C17 1.1(4) . . . . ?
C15 C16 C17 C18 -1.7(4) . . . . ?
C16 C17 C18 C13 0.2(4) . . . . ?
C18 C13 C14 C15 -2.4(4) . . . . ?

_shelx_res_file                  
;
TITL jl20018x1_refinalized_a.res in P-1
    jl20018x1_refinalized.res
    created by SHELXL-2018/3 at 14:55:27 on 21-Jul-2021
REM Old TITL jl20018x1_refinalized_a.res in P-1
REM SHELXT solution in P-1: R1 0.069, Rweak 0.011, Alpha 0.097
REM <I/s> 0.000 for 0 systematic absences, Orientation as input
REM Formula found by SHELXT: C36 Cl6 N6 O4 Sn
CELL 0.71073 8.772 11.1752 12.0751 113.632 103.282 97.177
ZERR 1 0.0004 0.0005 0.0006 0.004 0.004 0.004
LATT 1
SFAC C H Cl N O Sn
UNIT 36 44.53 6 4 5.26 1
EQIV $1 1-X,1-Y,1-Z
EQIV $2 -X,1-Y,1-Z
DFIX 0.84 O3 H3a O3 H3b
DFIX 0.84 O1 H1
DFIX 0.84 O2 H2

L.S. 16
PLAN  20
TEMP -153.15
CONF
HTAB O1 O1_$1
HTAB O2 O2_$2
HTAB O3 Cl2
HTAB O3 Cl1
BOND
list 4
MORE -1
BOND $H
fmap 2
acta
htab
REM <olex2.extras>
REM <HklSrc "%.\\jl20018x1_refinalized.hkl">
REM </olex2.extras>

WGHT    0.012700    0.312300
FVAR       0.65788   0.63248
SN1   6    0.000000    0.000000    0.000000    10.50000    0.01141    0.01024 =
         0.01281    0.00326    0.00366    0.00223
CL1   3    0.108353    0.157842    0.225459    11.00000    0.02047    0.01933 =
         0.01524    0.00187    0.00367    0.00309
CL2   3    0.144725   -0.159900    0.038402    11.00000    0.02141    0.02020 =
         0.02428    0.01215    0.00945    0.00943
CL3   3   -0.228215   -0.100583    0.041912    11.00000    0.01701    0.01637 =
         0.02309    0.00714    0.00789    0.00191
O1    5    0.468115    0.599692    0.572445    11.00000    0.02359    0.01745 =
         0.01677    0.00842    0.00805    0.01214
PART -1
H1    2    0.483303    0.528241    0.521812    10.50000   -1.20000
PART 0
O2    5    0.109270    0.588036    0.589000    11.00000    0.01650    0.01920 =
         0.01769    0.00879   -0.00222   -0.00048
PART -1
H2    2    0.033742    0.525301    0.531455    10.50000   -1.20000
PART 0
N1    4    0.392705    0.792108    0.606842    11.00000    0.01670    0.01306 =
         0.01541    0.00554    0.00504    0.00537
N2    4    0.294646    0.658563    0.777903    11.00000    0.01178    0.01512 =
         0.01471    0.00601    0.00348    0.00285
C1    1    0.269579    0.507264    0.304517    11.00000    0.01799    0.01609 =
         0.01897    0.00636    0.00392    0.00628
AFIX  43
H1A   2    0.229457    0.447997    0.335446    11.00000   -1.20000
AFIX   0
C2    1    0.232529    0.466604    0.174854    11.00000    0.02159    0.01981 =
         0.02021    0.00476    0.00110    0.00615
AFIX  43
H2A   2    0.165532    0.379676    0.116815    11.00000   -1.20000
AFIX   0
C3    1    0.292183    0.551335    0.130032    11.00000    0.03516    0.03304 =
         0.01318    0.00865    0.00470    0.01369
AFIX  43
H3    2    0.265269    0.522910    0.041036    11.00000   -1.20000
AFIX   0
C4    1    0.392126    0.679021    0.213917    11.00000    0.03574    0.02977 =
         0.02285    0.01755    0.01212    0.00828
AFIX  43
H4    2    0.435180    0.736856    0.182682    11.00000   -1.20000
AFIX   0
C5    1    0.427500    0.720009    0.343733    11.00000    0.02471    0.01685 =
         0.02076    0.00811    0.00440    0.00486
AFIX  43
H5    2    0.494585    0.806893    0.401802    11.00000   -1.20000
AFIX   0
C6    1    0.365925    0.635462    0.389089    11.00000    0.01482    0.01610 =
         0.01441    0.00572    0.00413    0.00664
C7    1    0.409780    0.675525    0.527760    11.00000    0.01109    0.01578 =
         0.01782    0.00794    0.00476    0.00242
C8    1    0.298407    0.874538    0.566839    11.00000    0.03430    0.01975 =
         0.02297    0.01004    0.00903    0.01557
AFIX 137
H8A   2    0.371390    0.955677    0.578799    11.00000   -1.50000
H8B   2    0.225311    0.900413    0.617929    11.00000   -1.50000
H8C   2    0.235195    0.822877    0.476926    11.00000   -1.50000
AFIX   0
C9    1    0.451370    0.838202    0.745329    11.00000    0.01926    0.01094 =
         0.01609    0.00280    0.00292    0.00145
AFIX  23
H9A   2    0.491841    0.937402    0.788140    11.00000   -1.20000
H9B   2    0.542888    0.798921    0.765443    11.00000   -1.20000
AFIX   0
C10   1    0.321236    0.799171    0.797132    11.00000    0.01861    0.01133 =
         0.01455    0.00229    0.00527    0.00348
AFIX  23
H10A  2    0.351717    0.859510    0.889233    11.00000   -1.20000
H10B  2    0.218631    0.813272    0.755338    11.00000   -1.20000
AFIX   0
C11   1    0.407407    0.635683    0.872858    11.00000    0.01846    0.01995 =
         0.01931    0.00813   -0.00055    0.00217
AFIX 137
H11A  2    0.517827    0.681567    0.886932    11.00000   -1.50000
H11B  2    0.398923    0.538846    0.842541    11.00000   -1.50000
H11C  2    0.381089    0.671292    0.952778    11.00000   -1.50000
AFIX   0
C12   1    0.183357    0.561545    0.677146    11.00000    0.01260    0.01800 =
         0.01369    0.00529    0.00613    0.00471
C13   1    0.146987    0.425125    0.670047    11.00000    0.01048    0.01504 =
         0.01745    0.00626   -0.00001    0.00083
C14   1    0.163849    0.314264    0.570708    11.00000    0.01695    0.01998 =
         0.02220    0.00527    0.00505    0.00288
AFIX  43
H14   2    0.193816    0.324620    0.503695    11.00000   -1.20000
AFIX   0
C15   1    0.137074    0.188706    0.569154    11.00000    0.02619    0.01404 =
         0.03724    0.00343    0.00359    0.00440
AFIX  43
H15   2    0.150291    0.113266    0.501898    11.00000   -1.20000
AFIX   0
C16   1    0.091260    0.173592    0.665361    11.00000    0.02050    0.02196 =
         0.04984    0.02080   -0.00186    0.00188
AFIX  43
H16   2    0.074784    0.087709    0.664876    11.00000   -1.20000
AFIX   0
C17   1    0.068952    0.282087    0.762733    11.00000    0.02248    0.03408 =
         0.03335    0.02246    0.00212   -0.00058
AFIX  43
H17   2    0.034551    0.270338    0.827578    11.00000   -1.20000
AFIX   0
C18   1    0.096929    0.407301    0.765103    11.00000    0.01657    0.02263 =
         0.02080    0.00934    0.00215    0.00346
AFIX  43
H18   2    0.081996    0.482044    0.832010    11.00000   -1.20000
AFIX   0

O3    5    0.306280   -0.004817    0.354449    21.00000    0.03631    0.02262 =
         0.02203    0.01031    0.00272    0.00768
H3A   2    0.281717   -0.082329    0.296331    21.00000    0.05558
H3B   2    0.258782    0.045657    0.332470    21.00000    0.06839
HKLF 4




REM  jl20018x1_refinalized_a.res in P-1
REM wR2 = 0.0699, GooF = S = 1.046, Restrained GooF = 1.046 for all data
REM R1 = 0.0407 for 4332 Fo > 4sig(Fo) and 0.0559 for all 5179 data
REM 258 parameters refined using 4 restraints

END

WGHT      0.0127      0.3123

REM Instructions for potential hydrogen bonds
HTAB O1 O1_$1
HTAB O2 O2_$2
EQIV $4 x, y+1, z+1
HTAB C10 Cl2_$4
HTAB C10 Cl3_$2
HTAB C10 Cl1_$2
EQIV $5 x+1, y+1, z+1
HTAB C11 Cl3_$5
HTAB O3 Cl2
HTAB O3 Cl1

REM Highest difference peak  0.706,  deepest hole -0.588,  1-sigma level  0.117
Q1    1  -0.0872 -0.0312  0.0325  11.00000  0.05    0.71
Q2    1  -0.0242  0.0747  0.0184  11.00000  0.05    0.53
Q3    1   0.0207  0.0232  0.0922  11.00000  0.05    0.47
Q4    1   0.1964  0.4822 -0.0771  11.00000  0.05    0.45
Q5    1   0.4203  0.8187  0.7941  11.00000  0.05    0.44
Q6    1   0.1186 -0.2197  0.0786  11.00000  0.05    0.44
Q7    1   0.4826  0.7232  0.9844  11.00000  0.05    0.44
Q8    1   0.3059  1.0770  0.7514  11.00000  0.05    0.44
Q9    1  -0.2016 -0.1853  0.0177  11.00000  0.05    0.43
Q10   1   0.3006  0.5048  0.5096  11.00000  0.05    0.43
Q11   1   0.1516  0.1230  0.2814  11.00000  0.05    0.43
Q12   1   0.4227  0.4172  0.9200  11.00000  0.05    0.43
Q13   1  -0.0177  0.1765  0.2034  11.00000  0.05    0.42
Q14   1   0.0238  0.2139  0.7013  11.00000  0.05    0.41
Q15   1   0.1992  0.1997  0.8384  11.00000  0.05    0.41
Q16   1   0.1893  0.3558  0.3586  11.00000  0.05    0.41
Q17   1   0.0861  0.4533 -0.0003  11.00000  0.05    0.41
Q18   1   0.1137  0.6957  0.7353  11.00000  0.05    0.41
Q19   1   0.0757 -0.1174 -0.0178  11.00000  0.05    0.40
Q20   1  -0.0047 -0.0621  0.0296  11.00000  0.05    0.40
;
_shelx_res_checksum              37326
_shelx_hkl_file                  
;
   0   0   2  218.03   12.00
   0   0  -2  245.52   13.02
   0   0   2  246.58   18.01
   0   0   2  220.44   19.97
   0   0   3 1749.63   69.09
   0   0  -3 1662.92   52.52
   0   0   3 1713.20   51.34
   0   0  -3 1650.58   74.80
   0   0   3 1768.11   58.02
   0   0   3 1658.65   71.75
   0   0   4 1716.10   76.19
   0   0  -4 1449.40   52.52
   0   0   4 1546.82   51.00
   0   0  -4 1586.89   80.59
   0   0   4 1543.04   58.73
   0   0   4 1427.98   73.43
   0   0   5 4411.19  147.17
   0   0   5 3819.79  107.61
   0   0  -5 3844.74  112.42
   0   0   5 4039.29  120.81
   0   0   5 3847.98  147.53
   0   0   6   45.83    8.51
   0   0   6   29.25   13.39
   0   0  -6   41.60    9.70
   0   0   6   60.86   15.59
   0   0   7   54.37    9.65
   0   0   7   80.26   22.11
   0   0  -7   39.98   17.40
   0   0  -7   53.35   11.36
   0   0   7   43.09   13.30
   0   0   8   96.52   13.43
   0   0   8  114.65   28.15
   0   0  -8   68.93   24.78
   0   0   8   89.76   17.96
   0   0   8   77.07   15.63
   0   0  -9  724.36   83.66
   0   0   9  847.77   43.73
   0   0   9  787.26   57.81
   0   0   9  780.11   47.03
   0   0  10   16.78    6.44
   0   0 -10   14.64   12.03
   0   0  10    5.65    3.05
   0   0  10   13.66    8.34
   0   0 -11  283.25   59.45
   0   0  11  311.00   25.76
   0   0  11  251.88   36.60
   0   0  12   13.66    9.37
   0   0  13   30.31   14.91
   0   0  14   15.88   11.86
   0  -1  14  101.38   26.55
   0  -1  13    3.93    7.62
   0  -1  12   -1.74    5.55
   0  -1  12   28.44    9.65
   0  -1  11  193.06   31.77
   0  -1  11  186.43   22.34
   0  -1  10    3.30    5.83
   0  -1  10   11.79    7.00
   0  -1   9   -0.56    3.52
   0  -1   9    2.96   10.32
   0  -1   9    5.68    6.60
   0  -1   9    5.83    4.23
   0  -1   8   22.23    7.51
   0  -1   8   18.24   13.01
   0   1  -8   30.62   14.49
   0  -1   8   36.74   12.37
   0  -1   8   25.85    8.41
   0   1  -7  367.65   49.60
   0  -1   7  415.20   30.19
   0  -1   7  441.87   38.51
   0  -1   7  379.37   46.52
   0  -1   6   33.97    7.97
   0  -1   6   14.39    9.93
   0  -1   6   38.07   12.18
   0  -1   5 1093.12   69.35
   0  -1   5 1141.33   49.08
   0   1  -4  116.25    9.89
   0  -1   4  116.55   21.09
   0   1  -4  122.49   21.71
   0  -1   4  105.66   12.81
   0  -1   4  122.64    8.18
   0  -1   3  754.01   33.96
   0   1  -3  808.18   32.80
   0  -1   3  813.60   47.76
   0  -1   3  689.03   35.17
   0  -1   2 3205.15   89.61
   0  -1   2 3372.85   98.20
   0   1  -2 3679.38   96.60
   0  -1  -1 2404.56   59.59
   0   1   1 2464.49   59.22
   0  -1  -1 2530.88   76.58
   0  -1  -1 2407.83   59.75
   0  -1  -1 2841.22   98.48
   0   1   2 2402.14   61.14
   0   1   2 2464.88   68.99
   0  -1  -2 2423.45   75.21
   0  -1  -2 2299.66   61.45
   0   1   2 2440.03   65.97
   0   1   2 2596.55   96.79
   0  -1  -2 2860.07  106.57
   0   1   3 5423.70  166.33
   0  -1  -3 4837.28  158.42
   0   1   3 4695.64  114.78
   0  -1  -3 4670.50  116.79
   0   1   3 4842.68  114.75
   0   1   3 4787.41  123.73
   0  -1  -3 4685.36  151.00
   0   1   4 7018.04  178.01
   0   1   4 6896.21  215.93
   0   1   4 6905.80  164.43
   0  -1  -4 6899.85  169.07
   0   1   5  989.85   47.85
   0   1   5  936.56   64.48
   0  -1  -5  945.65   40.80
   0   1   5  912.41   36.54
   0   1   6  675.25   31.36
   0  -1  -6  618.49   34.74
   0  -1  -6  582.05   59.00
   0   1   6  586.98   50.67
   0  -1  -7  604.43   37.14
   0  -1  -7  615.06   65.83
   0   1   7  637.19   32.21
   0   1   7  573.55   49.07
   0   1   8  936.41   42.18
   0  -1  -8  951.30   89.59
   0  -1  -8  939.56   50.53
   0   1   8  888.14   58.07
   0   1   8  986.11   63.54
   0   1   9  292.79   22.17
   0  -1  -9  214.48   46.30
   0   1   9  276.82   33.53
   0   1   9  289.59   31.76
   0   1  10   14.58    5.33
   0  -1 -10   18.54   18.82
   0   1  10    6.71    4.00
   0   1  10   26.63   12.34
   0  -1 -11   94.63   35.59
   0   1  11   59.23   19.03
   0  -1 -12   18.12   20.38
   0   1  12   63.67   19.39
   0   1  13   21.46    9.12
   0  -2  14  246.13   42.81
   0  -2  13   58.28   20.06
   0  -2  12   82.77   22.72
   0  -2  12   81.49   16.69
   0  -2  11  167.13   29.63
   0  -2  11  147.93   22.45
   0  -2  10  105.11   21.72
   0  -2  10  122.36   20.05
   0  -2   9   24.50    9.02
   0  -2   9   43.49   19.50
   0  -2   9   13.53    8.39
   0  -2   9   17.00    5.52
   0  -2   9   28.92    4.19
   0  -2   8  193.28   23.43
   0  -2   8  236.32   29.13
   0  -2   8  211.01   13.54
   0  -2   8  191.82   22.13
   0  -2   8  181.28   35.90
   0   2  -8  184.92   11.06
   0  -2   7    2.52    2.13
   0  -2   7    1.81    2.43
   0  -2   7   14.53   14.06
   0  -2   7    1.41    4.02
   0  -2   7    2.78    6.96
   0   2  -7    1.85    2.24
   0  -2   6 1388.29   64.03
   0  -2   6 1557.72   47.52
   0  -2   6 1484.74   49.15
   0   2  -6 1453.47   55.26
   0  -2   6 1399.32   90.21
   0  -2   5   82.87    8.80
   0  -2   5   86.60   19.53
   0  -2   5   84.94   14.02
   0   2  -5   93.13   14.02
   0  -2   5   59.72   13.81
   0   2  -4  862.92   46.45
   0  -2   4  798.37   50.93
   0  -2   4  837.11   33.15
   0  -2   4  814.30   42.80
   0   2  -3  251.86   25.23
   0  -2   3  283.09   18.66
   0   2  -3  281.84   16.49
   0  -2   3  216.12   26.30
   0   2  -2  535.69   37.75
   0  -2   2  512.37   39.31
   0   2  -2  539.17   27.57
   0  -2   2  548.84   30.89
   0   2  -1 3083.32  108.58
   0   2  -1 3160.46   98.15
   0  -2   0   84.22   11.04
   0   2   0   85.64   11.22
   0  -2   0   93.69   17.01
   0   2   0   68.84   14.00
   0   2   0  100.16   16.58
   0   2   1  213.73   23.13
   0  -2  -1  257.82   26.99
   0  -2  -1  255.33   34.18
   0  -2  -1  211.77   12.81
   0   2   1  182.98   23.99
   0   2   1  230.11   12.65
   0  -2  -1  232.20   11.67
   0   2   1  243.45   15.15
   0  -2  -1  239.20   16.50
   0  -2  -2 1887.90  105.21
   0   2   2 1647.93   83.87
   0  -2  -2 1556.29   47.64
   0   2   2 1634.32   65.77
   0  -2  -2 1385.40   70.14
   0   2   2 1555.51   49.64
   0  -2  -2 1585.68   47.19
   0  -2  -2 1578.90   51.40
   0   2   3 6893.50  216.15
   0  -2  -3 7455.69  245.15
   0   2   3 6740.82  156.92
   0   2   3 6767.69  174.81
   0  -2  -3 6059.61  187.33
   0  -2  -3 6479.10  158.85
   0   2   3 6624.37  165.79
   0  -2  -3 6789.90  165.81
   0   2   4  998.48   68.76
   0  -2  -4  976.97   76.35
   0   2   4  980.66   35.55
   0   2   4  941.10   40.46
   0  -2  -4  955.28   37.95
   0   2   4  981.81   44.21
   0  -2  -4 1015.64   37.02
   0   2   5  319.75   39.11
   0   2   5  230.93   15.96
   0  -2  -5  269.04   40.72
   0  -2  -5  224.83   33.56
   0   2   5  224.82   15.39
   0  -2  -5  244.50   18.67
   0   2   5  247.23   22.66
   0  -2  -5  235.30   14.47
   0  -2  -6 1069.64   33.91
   0   2   6 1039.92   75.30
   0   2   6 1100.19   41.41
   0  -2  -6 1079.45   47.07
   0   2   6 1085.84   55.50
   0  -2  -6 1042.58   82.39
   0  -2  -7 2857.62   93.52
   0  -2  -7 2602.08  148.83
   0   2   7 2887.52   83.53
   0   2   7 2699.76  126.61
   0   2   8  997.82   41.16
   0  -2  -8  958.96   93.03
   0  -2  -8 1071.67   51.78
   0   2   8  966.05   61.20
   0   2   8 1087.48   72.53
   0   2   9  213.75   17.06
   0  -2  -9  213.14   46.90
   0   2   9  274.80   34.09
   0   2   9  205.86   29.15
   0  -2 -10  164.75   43.11
   0   2  10  207.10   27.97
   0   2  10  169.95   28.50
   0  -2 -11  245.77   56.93
   0   2  11  178.83   32.00
   0  -2 -12  320.49   68.78
   0   2  12  369.64   47.93
   0  -3  14  337.73   50.51
   0  -3  13  201.58   37.47
   0  -3  13  279.19   34.53
   0  -3  12  506.45   54.79
   0  -3  12  488.33   45.07
   0  -3  11  253.91   36.90
   0  -3  11  277.89   32.89
   0  -3  10  655.20   56.23
   0  -3  10  535.28   45.73
   0   3  -9   53.82    9.33
   0  -3   9   58.21    8.96
   0  -3   9   60.79    8.60
   0  -3   9   63.97   16.33
   0  -3   9   45.42   13.42
   0  -3   9   60.30   21.74
   0  -3   8  512.14   28.66
   0  -3   8  449.88   39.22
   0  -3   8  563.33   47.71
   0  -3   8  464.26   27.53
   0   3  -8  531.74   33.79
   0  -3   8  499.31   60.66
   0  -3   7  144.41   15.21
   0  -3   7  112.14   26.19
   0  -3   7  130.34   20.38
   0  -3   7  138.45   15.30
   0   3  -7  136.49   19.20
   0  -3   6   57.68   19.31
   0  -3   6   57.25   14.75
   0  -3   6   48.32    9.97
   0  -3   6   45.18   16.08
   0   3  -6   40.87   11.63
   0  -3   5  167.45   18.13
   0  -3   5  103.79   17.41
   0   3  -5  130.61   20.30
   0  -3   5  131.54   24.75
   0  -3   4  884.89   46.07
   0   3  -4  910.69   38.76
   0   3  -4  806.42   55.16
   0  -3   4  813.40   61.93
   0   3  -3  188.66   27.51
   0  -3   3  238.62   33.37
   0   3  -3  206.98   19.84
   0  -3   3  195.14   23.03
   0   3  -2   62.42   12.21
   0  -3   2   81.81   17.74
   0   3  -2   47.50   14.86
   0   3  -1  158.76   22.16
   0   3  -1   99.47   21.38
   0   3  -1  137.46   19.60
   0   3   0  229.92   29.71
   0   3   0  200.52   20.43
   0  -3   0  208.53   30.65
   0   3   0  178.31   26.02
   0   3   1   33.77    7.47
   0  -3  -1   65.70   11.32
   0   3   1   73.04   18.77
   0  -3  -1   61.21   23.25
   0  -3  -1   46.36    7.03
   0  -3  -1   61.02    6.55
   0  -3  -1   83.98   21.14
   0   3   1   43.39   13.85
   0  -3  -2 2136.57   66.26
   0   3   2 2280.35  110.13
   0  -3  -2 2460.28  140.21
   0  -3  -2 2249.11  106.35
   0   3   2 2219.65   93.62
   0  -3  -2 2142.67   61.49
   0   3   2 2193.70   66.58
   0  -3  -2 2271.39   75.05
   0  -3  -3  166.58   16.64
   0  -3  -3  117.49   12.22
   0  -3  -3  154.85   39.36
   0   3   3  118.36   25.60
   0   3   3  173.97   16.60
   0  -3  -3  138.14   24.91
   0   3   3  140.70   20.27
   0  -3  -4  827.17   82.84
   0   3   4  793.10   66.16
   0   3   4  744.96   43.71
   0  -3  -4  780.00   35.26
   0   3   4  810.47   41.50
   0  -3  -4  823.97   40.44
   0  -3  -5  253.48   22.56
   0  -3  -5  257.39   44.70
   0   3   5  253.77   38.15
   0  -3  -5  262.93   20.20
   0  -3  -5  266.95   19.88
   0   3   5  259.29   24.45
   0  -3  -5  297.99   41.00
   0   3   5  259.20   22.27
   0  -3  -6 1036.24   41.18
   0   3   6  969.97   76.21
   0   3   6 1020.41   42.61
   0  -3  -6 1062.73   47.32
   0   3   6 1098.85   57.60
   0  -3  -6 1020.84   52.21
   0  -3  -6 1021.47   84.71
   0   3   7  646.11   62.21
   0  -3  -7  544.43   24.63
   0  -3  -7  622.98   35.90
   0  -3  -7  632.21   41.67
   0  -3  -7  640.26   71.64
   0  -3  -7  556.71   23.05
   0   3   8  688.75   61.81
   0  -3  -8  654.94   38.53
   0   3   8  717.24   52.57
   0  -3  -8  695.59   46.27
   0  -3  -8  627.71   77.13
   0   3   9  606.98   56.15
   0   3   9  603.53   51.96
   0  -3  -9  634.86   46.90
   0  -3  -9  622.45   81.90
   0  -3 -10  203.69   49.47
   0   3  10  132.51   24.92
   0   3  10  195.27   31.08
   0  -3 -11  965.23  117.35
   0   3  11  863.42   71.50
   0  -4  14  170.82   35.72
   0  -4  14  140.89   27.41
   0  -4  13  314.25   46.29
   0  -4  13  309.59   39.43
   0  -4  12  657.00   62.90
   0  -4  12  545.76   51.96
   0   4 -11 1388.79   54.68
   0  -4  11 1246.90   49.21
   0  -4  11 1383.20   82.52
   0  -4  11 1462.39   91.95
   0  -4  11 1247.05   52.68
   0  -4  10  399.26   30.40
   0  -4  10  405.01   42.67
   0   4 -10  464.75   33.69
   0  -4  10  480.29   48.73
   0  -4  10  393.66   27.93
   0  -4   9  611.64   40.14
   0  -4   9  581.59   49.88
   0  -4   9  623.62   74.28
   0   4  -9  511.95   39.50
   0  -4   9  669.68   56.10
   0  -4   9  632.14   37.64
   0  -4   8  460.27   61.22
   0   4  -8  463.03   40.45
   0  -4   8  464.89   33.30
   0  -4   8  418.64   33.73
   0  -4   8  428.43   41.39
   0  -4   7 1126.33   67.50
   0  -4   7 1084.77   58.37
   0  -4   7 1069.03   81.16
   0   4  -7 1056.82   66.70
   0  -4   6  735.39   52.98
   0  -4   6  687.50   65.06
   0   4  -6  789.99   58.41
   0  -4   6  823.11   51.11
   0   4  -5   34.42    8.53
   0  -4   5   37.35   17.96
   0   4  -5   13.77    9.99
   0  -4   5   42.17   13.09
   0   4  -4  757.45   60.83
   0  -4   4  764.31   67.51
   0   4  -4  801.14   44.41
   0  -4   4  763.23   53.81
   0  -4   3 1213.67   85.95
   0   4  -3 1251.65   80.37
   0   4  -3 1290.41   63.76
   0  -4   3 1207.84   74.21
   0  -4   2  162.30   29.96
   0   4  -2  181.62   25.13
   0   4  -2  228.62   33.68
   0   4  -1  174.40   23.69
   0   4  -1  174.38   29.18
   0  -4   1  146.89   28.98
   0   4  -1  133.83   23.73
   0   4   0  499.44   47.80
   0   4   0  419.37   44.71
   0   4   0  463.76   34.78
   0  -4   0  366.27   45.99
   0  -4  -1 1362.62  106.91
   0   4   1 1249.70   81.39
   0  -4  -1 1236.80   48.68
   0  -4  -1 1076.77   81.72
   0   4   1 1168.98   75.90
   0  -4  -1 1308.89   41.43
   0   4   1 1259.83   54.43
   0  -4  -1 1252.36   60.86
   0  -4  -2    9.31    6.58
   0  -4  -2    2.06    2.58
   0  -4  -2    3.76    2.25
   0  -4  -2   -8.05   15.79
   0   4   2    7.78    8.91
   0   4   2   19.77   11.83
   0  -4  -2    8.35   10.33
   0   4   3  187.55   33.38
   0  -4  -3  153.35   15.28
   0  -4  -3  164.31   43.33
   0  -4  -3  170.16   19.59
   0   4   3  179.22   25.31
   0  -4  -3  147.58   29.36
   0  -4  -4  104.44   15.12
   0  -4  -4  111.16   36.82
   0   4   4   76.25   24.16
   0  -4  -4   98.53   12.58
   0   4   4  100.90   14.83
   0   4   4   93.71   17.52
   0  -4  -5  111.61   15.08
   0  -4  -5  127.08   17.32
   0   4   5  132.37   29.09
   0  -4  -5  101.56   34.64
   0  -4  -5   92.83   13.01
   0   4   5  107.12   17.37
   0   4   5  131.97   18.12
   0  -4  -5  159.85   32.25
   0  -4  -6 1847.35   69.06
   0  -4  -6 1838.55  141.12
   0   4   6 1788.26  113.40
   0   4   6 1840.89   73.20
   0  -4  -6 1905.91   70.52
   0   4   6 1942.70   83.29
   0  -4  -6 1651.52  116.00
   0  -4  -6 1824.36   77.21
   0  -4  -7  122.02   18.25
   0   4   7  113.51   26.93
   0  -4  -7   98.13   29.97
   0   4   7   90.60   11.85
   0  -4  -7  116.76   15.26
   0  -4  -7   89.67   11.77
   0   4   8  216.44   36.70
   0  -4  -8  148.02   39.61
   0  -4  -8  204.07   20.29
   0   4   8  150.29   24.30
   0  -4  -8  156.23   21.54
   0  -4  -9   -4.43   16.52
   0   4   9   17.66    8.34
   0   4   9   27.05   12.29
   0   4  10  498.36   50.54
   0  -4 -10  526.06   83.14
   0  -4 -11  422.29   79.34
   0  -5  14   85.95   25.84
   0  -5  14   55.59   18.66
   0  -5  13  336.50   47.75
   0  -5  13  368.55   45.30
   0  -5  12  822.80   71.35
   0  -5  12  672.80   61.64
   0   5 -12  738.53   45.04
   0  -5  11  241.95   28.98
   0  -5  11  222.79   33.99
   0  -5  11  323.07   42.01
   0  -5  11  210.75   22.77
   0   5 -11  242.88   28.15
   0  -5  10  190.76   27.13
   0  -5  10  271.81   36.89
   0  -5  10  245.10   35.32
   0   5 -10  187.77   26.42
   0  -5  10  186.57   22.61
   0  -5   9  305.64   51.34
   0   5  -9  229.35   31.67
   0  -5   9  247.79   27.11
   0  -5   9  263.82   32.44
   0  -5   9  267.16   36.36
   0   5  -8 2438.81  114.98
   0  -5   8 2032.98  130.82
   0  -5   8 2432.68  108.78
   0  -5   8 2246.76  110.66
   0  -5   7 1589.00  113.11
   0   5  -7 1889.98  102.78
   0  -5   7 1746.65   92.00
   0  -5   7 1740.84   93.16
   0   5  -6  398.69   46.79
   0   5  -6  361.86   29.17
   0  -5   6  355.30   39.87
   0  -5   6  368.82   52.50
   0  -5   5 1161.16   95.72
   0   5  -5 1115.03   81.70
   0  -5   5 1194.05   79.17
   0   5  -5 1253.09   62.10
   0   5  -4  322.73   32.08
   0  -5   4  275.01   45.10
   0   5  -4  342.90   44.78
   0  -5   4  283.20   38.65
   0   5  -3 2946.01  143.04
   0   5  -3 3064.16  122.52
   0  -5   3 2997.47  146.20
   0   5  -2   -6.43    9.65
   0   5  -2    8.94   11.63
   0   5  -2    9.02   13.60
   0   5  -1  215.33   28.04
   0   5  -1  217.26   36.86
   0   5  -1  194.73   30.45
   0  -5   0  987.42   86.83
   0   5   0  974.02   75.60
   0   5   0 1019.14   75.16
   0   5   0  978.79   57.53
   0  -5  -1  398.33   53.64
   0  -5  -1  341.82   25.48
   0  -5  -1  402.93   65.13
   0   5   1  401.41   48.31
   0   5   1  357.77   43.88
   0  -5  -1  350.77   19.08
   0   5   1  337.45   29.07
   0  -5  -2  356.71   51.63
   0   5   2  517.33   57.17
   0  -5  -2  472.39   30.08
   0  -5  -2  525.87   80.44
   0   5   2  439.24   46.95
   0  -5  -2  452.81   21.57
   0  -5  -2  389.14   34.99
   0   5   2  449.05   30.90
   0   5   3    0.38   10.87
   0   5   3   -0.26    5.16
   0  -5  -3   -2.10   10.37
   0  -5  -3    1.74    4.53
   0  -5  -3    2.15    4.07
   0   5   4   15.43   15.79
   0  -5  -4   -1.70   13.82
   0  -5  -4    9.35    3.76
   0   5   4   12.64   10.23
   0  -5  -4    6.12    5.83
   0  -5  -5  763.51   97.22
   0   5   5  766.89   75.84
   0   5   5  784.26   54.13
   0  -5  -5  754.08   41.45
   0  -5  -5  697.79   45.11
   0  -5  -5  798.33   78.55
   0  -5  -5  729.14   46.71
   0  -5  -6   14.88    9.41
   0   5   6    3.38    5.59
   0  -5  -6    0.94   11.81
   0  -5  -6    9.43   10.24
   0  -5  -6   11.69    5.22
   0   5   6   14.70    7.90
   0  -5  -6    4.10    3.80
   0   5   7   15.32   14.91
   0  -5  -7  -11.24   14.41
   0   5   7    8.61    4.59
   0  -5  -7    8.29    5.78
   0  -5  -7    7.65    5.31
   0  -5  -7    8.20    5.96
   0   5   8   10.22    9.34
   0  -5  -8    5.22   11.10
   0   5   8   12.66   13.71
   0  -5  -9  457.12   76.29
   0   5   9  427.76   53.61
   0  -5 -10  394.78   74.74
   0  -6  15   11.98   12.54
   0  -6  14   17.01   10.95
   0  -6  14   32.54   19.08
   0   6 -13  125.73   20.08
   0  -6  13  114.52   27.08
   0  -6  13  140.41   31.84
   0   6 -12   26.02   10.39
   0  -6  12   16.46   13.52
   0  -6  12   12.09   10.94
   0  -6  11  184.90   31.16
   0  -6  11  207.74   35.50
   0  -6  11  254.57   38.04
   0   6 -11  219.10   31.36
   0  -6  10  514.28   55.22
   0  -6  10  502.68   53.00
   0   6 -10  597.86   55.51
   0  -6   9  695.37   62.18
   0  -6   9  778.69   66.16
   0   6  -9  829.69   68.26
   0  -6   8  835.40   68.30
   0   6  -8  948.50   75.76
   0  -6   8  906.81   73.98
   0   6  -7   32.24    9.27
   0   6  -7   25.28   18.14
   0  -6   7   17.99   10.12
   0  -6   6  769.98   70.50
   0   6  -6  861.69   53.65
   0   6  -6  738.95   70.79
   0   6  -5 1091.80   65.39
   0   6  -5 1242.25   92.88
   0   6  -4 2205.59  104.00
   0   6  -4 2367.48  132.95
   0   6  -3  514.79   49.41
   0   6  -3  465.60   53.29
   0   6  -3  552.94   61.78
   0   6  -2  334.01   41.60
   0   6  -2  204.09   38.27
   0   6  -2  300.09   38.85
   0  -6   1 1170.17  103.87
   0   6  -1 1208.10   91.92
   0   6  -1 1208.45   74.39
   0   6  -1 1235.20   85.84
   0  -6   0 1640.70  124.04
   0   6   0 1694.29  110.19
   0   6   0 1675.68  105.56
   0   6   0 1846.66   87.17
   0   6   1  218.65   24.89
   0  -6  -1  223.34   22.55
   0   6   1  189.47   35.05
   0  -6  -1  276.27   16.61
   0  -6  -1  223.74   45.48
   0   6   1  203.81   37.13
   0   6   2    7.53    5.63
   0   6   2   20.54   16.90
   0  -6  -2   26.67   29.54
   0  -6  -2    6.15    3.17
   0  -6  -2   -4.44    3.87
   0   6   2    0.40    8.75
   0  -6  -2  -14.92   18.07
   0  -6  -3   12.89    5.45
   0   6   3   27.04   15.38
   0  -6  -3   23.44   16.51
   0   6   3   20.52   12.92
   0  -6  -3   20.31   22.39
   0   6   4  672.54   73.54
   0  -6  -4  644.75   99.47
   0   6   4  574.92   54.02
   0  -6  -4  519.08   35.94
   0  -6  -4  515.46   42.46
   0  -6  -4  580.59   45.78
   0   6   5  207.61   40.81
   0  -6  -5  182.48   51.43
   0   6   5  362.94   40.12
   0  -6  -5  356.89   56.24
   0  -6  -5  359.92   29.32
   0  -6  -5  300.45   30.28
   0  -6  -5  330.58   33.32
   0  -6  -6   34.27    9.76
   0  -6  -6   12.91   17.92
   0   6   6   42.01   19.22
   0  -6  -6   50.78   24.36
   0  -6  -6   39.83    9.76
   0   6   6   88.11   18.01
   0  -6  -6   28.74   10.75
   0  -6  -7   22.82   20.62
   0   6   7    2.31    6.94
   0   6   7    4.83    5.66
   0  -6  -8  165.79   44.96
   0   6   8  141.45   33.27
   0  -6  -9  257.17   59.74
   0  -7  15   -4.91   10.38
   0  -7  14  165.98   35.09
   0  -7  14  234.36   41.83
   0   7 -13  101.17   21.73
   0  -7  13  139.71   31.91
   0  -7  13  150.25   33.38
   0   7 -12   92.26   22.50
   0  -7  12   91.00   26.12
   0  -7  12   68.30   21.57
   0  -7  12   45.41   13.88
   0   7 -11   55.14   19.45
   0  -7  11   65.60   21.01
   0  -7  11   65.07   21.67
   0  -7  11   68.88   17.34
   0  -7  11  107.45   29.28
   0  -7  10   76.10   25.35
   0   7 -10   89.30   23.22
   0  -7   9 1385.98   96.54
   0   7  -9 1596.23  106.59
   0  -7   9 1379.06  125.25
   0   7  -8   23.41    9.54
   0  -7   8   20.93   17.38
   0   7  -8   10.36   11.28
   0  -7   8    6.80    6.69
   0  -7   7  112.53   36.96
   0   7  -7  157.36   23.48
   0  -7   6  850.76   98.13
   0   7  -6 1056.97   90.19
   0  -7   6  902.67   88.00
   0   7  -6 1018.68   65.17
   0  -7   5  747.84   89.54
   0   7  -5  750.50   76.97
   0   7  -5  750.18   58.66
   0  -7   5  620.93   75.61
   0   7  -4 1119.35   94.42
   0   7  -4 1057.50   89.63
   0   7  -4 1057.76   74.05
   0  -7   4 1034.53  101.04
   0   7  -3   30.96   15.18
   0   7  -3   34.04   22.38
   0   7  -3   35.95   16.76
   0   7  -2  715.83   66.66
   0   7  -2  802.27   67.48
   0  -7   2  661.34   85.45
   0   7  -2  961.73   87.16
   0   7  -1  795.59   72.33
   0   7  -1  817.42   63.23
   0   7  -1  627.33   71.67
   0  -7   1  628.65   81.46
   0   7   0 1263.52   95.76
   0  -7   0 1192.00  113.98
   0   7   0 1285.40  101.07
   0  -7   0 1271.79   50.73
   0   7   0 1274.68   75.84
   0   7   1   85.14   16.80
   0  -7  -1   95.14   16.01
   0   7   1   78.39   26.05
   0  -7  -1  111.72   48.34
   0  -7  -1   87.97    8.82
   0   7   1  130.98   30.23
   0  -7  -1  138.79   39.13
   0  -7  -2   26.60   47.86
   0   7   2   -4.26   13.31
   0  -7  -2    5.09    5.25
   0   7   2    9.02   11.52
   0  -7  -2   -7.04   18.37
   0   7   2    1.54    3.13
   0   7   3 1291.65  104.46
   0  -7  -3 1606.24  169.91
   0  -7  -3 1282.48   63.96
   0   7   3 1439.18   98.05
   0   7   4  371.27   46.08
   0  -7  -4  333.34   37.43
   0  -7  -4  319.67   29.68
   0   7   4  295.55   49.39
   0   7   5  152.34   36.66
   0  -7  -5  126.26   36.45
   0  -7  -5  144.70   20.01
   0  -7  -5  117.40   21.48
   0   7   5  182.23   30.94
   0   7   6    3.50    8.93
   0   7   6   10.14    7.83
   0  -7  -6    0.11   12.07
   0   7   7   46.96   21.47
   0  -7  -7   21.93   19.41
   0   7   8  318.93   51.33
   0  -7  -8  335.88   68.38
   0  -8  15   14.92   14.11
   0  -8  14  138.72   33.35
   0  -8  14  156.51   36.58
   0   8 -13   36.68   16.14
   0  -8  13   45.41   19.30
   0  -8  13   24.27   16.33
   0  -8  12   31.30   13.52
   0  -8  12   41.30   19.11
   0  -8  12   11.34   10.55
   0   8 -12   16.69   12.52
   0  -8  11  252.19   35.07
   0  -8  11  208.10   40.71
   0  -8  11  201.52   45.43
   0   8 -11  239.77   44.31
   0  -8  10  236.99   40.84
   0  -8  10  267.32   50.91
   0   8 -10  278.00   45.81
   0  -8   9    2.04   10.97
   0   8  -9   16.95    8.36
   0  -8   9    2.57    8.23
   0   8  -9    6.83    9.97
   0   8  -8  587.16   70.74
   0  -8   8  556.69   74.71
   0   8  -8  618.26   50.14
   0  -8   8  508.36   79.54
   0   8  -7  141.21   34.72
   0  -8   7   89.51   34.65
   0   8  -7  127.22   24.02
   0  -8   7   92.37   30.92
   0   8  -6  242.44   45.74
   0  -8   6  185.60   49.55
   0  -8   6  203.21   46.63
   0   8  -6  192.80   31.35
   0  -8   5  589.81   85.85
   0   8  -5  676.17   77.85
   0   8  -5  744.01   81.95
   0   8  -5  816.02   66.17
   0  -8   5  734.58   92.34
   0   8  -4   62.11   25.08
   0   8  -4   70.07   26.39
   0  -8   4   23.28   19.32
   0  -8   4   80.21   28.85
   0   8  -4   41.82   15.06
   0  -8   3  593.39   90.07
   0   8  -3  575.76   60.68
   0   8  -3  634.46   74.85
   0  -8   3  531.67   80.94
   0   8  -3  533.17   61.37
   0  -8   2  407.54   77.73
   0   8  -2  389.81   51.84
   0   8  -2  509.18   66.23
   0  -8   2  476.04   76.37
   0   8  -2  471.66   53.54
   0  -8   1  504.93   89.10
   0   8  -1  513.20   60.75
   0   8  -1  476.21   64.70
   0   8  -1  535.38   53.25
   0  -8   1  424.19   72.98
   0   8   0   54.22   16.19
   0  -8   0   58.60    9.18
   0  -8   0   36.12   21.48
   0   8   0   29.70   18.40
   0  -8   0   32.16   24.02
   0   8   1  420.72   39.05
   0  -8  -1  393.39   17.98
   0  -8  -1  392.16   35.10
   0   8   1  336.18   52.65
   0  -8  -1  251.84   56.41
   0   8   1  382.70   55.54
   0  -8  -2  320.09   31.75
   0   8   2  319.04   49.22
   0  -8  -2  369.46   66.55
   0   8   2  449.70   62.24
   0   8   3  373.02   57.56
   0  -8  -3  338.10   32.33
   0   8   3  349.20   50.58
   0  -8  -3  284.90   38.15
   0  -8  -4  203.97   25.25
   0   8   4  217.91   44.94
   0   8   4  224.04   38.55
   0  -8  -4  217.69   32.19
   0   8   5   -4.04   11.81
   0   8   5   -3.82    8.43
   0   8   6  132.63   38.03
   0  -8  -6   94.30   37.32
   0   8   7  287.06   51.20
   0  -8  -7  334.15   67.83
   0  -9  16   24.08   14.17
   0  -9  15  204.98   45.70
   0   9 -14  192.14   35.78
   0  -9  14  169.47   39.13
   0  -9  14  135.96   34.02
   0   9 -13   63.62   24.86
   0  -9  13   40.40   18.33
   0  -9  13   55.73   23.92
   0   9 -12   65.01   22.24
   0  -9  12   60.34   24.36
   0  -9  12  107.09   29.17
   0  -9  11  114.78   37.61
   0  -9  11  118.15   31.65
   0   9 -11   45.41   20.39
   0  -9  10  521.78   65.13
   0  -9  10  397.56   70.00
   0  -9   9  197.69   48.60
   0  -9   9  224.85   40.57
   0   9  -9  182.28   28.07
   0   9  -9  273.97   50.26
   0  -9   8    6.95   16.60
   0   9  -8   21.09   10.03
   0   9  -8   28.63   19.34
   0  -9   7  346.11   66.64
   0   9  -7  325.86   54.87
   0   9  -7  298.86   39.38
   0   9  -6  530.89   71.51
   0   9  -6  570.89   56.96
   0   9  -6  562.56   75.79
   0  -9   6  640.56   93.92
   0   9  -5  340.35   45.72
   0  -9   5  280.76   64.49
   0   9  -5  309.10   53.02
   0   9  -5  261.12   50.96
   0   9  -4   27.41   14.55
   0   9  -4   29.76   18.35
   0   9  -4   56.28   22.12
   0   9  -3    0.65   12.17
   0   9  -3   24.85   17.17
   0   9  -2 1073.24   92.41
   0   9  -2 1116.34   86.08
   0   9  -2 1007.08   99.90
   0   9  -1  489.68   62.41
   0   9  -1  447.95   50.55
   0   9  -1  419.62   63.08
   0   9   0   91.69   20.71
   0  -9   0   91.02   18.07
   0   9   0   81.42   28.68
   0  -9   0   89.26    9.84
   0   9   0  107.61   32.85
   0   9   1   20.99   15.76
   0   9   1   41.79   13.01
   0   9   1   44.66   21.09
   0  -9  -1   41.49   12.00
   0   9   2  221.10   44.04
   0   9   2  161.99   39.44
   0  -9  -2  221.91   28.36
   0   9   3  271.34   46.87
   0   9   3  334.27   57.21
   0  -9  -3  283.05   31.65
   0   9   4   36.23   17.26
   0   9   4   34.00   18.38
   0  -9  -5   17.36   17.07
   0   9   5   17.25   12.72
   0   9   5   10.94   12.72
   0   9   6  266.05   52.00
   0  -9  -6  233.32   58.09
   0   9   7  104.57   33.06
   0 -10  15   13.84   12.68
   0 -10  14   77.18   29.90
   0 -10  14   74.89   25.70
   0  10 -14  100.96   28.00
   0 -10  13   41.70   19.28
   0 -10  13   94.87   33.91
   0  10 -13   37.53   18.63
   0 -10  12  220.38   46.68
   0 -10  12  111.44   28.32
   0  10 -12  195.26   42.19
   0 -10  11  222.35   44.70
   0  10 -11  325.16   54.57
   0 -10  10  208.85   42.31
   0  10 -10  225.77   45.94
   0  10 -10  251.02   35.27
   0 -10   9   55.54   21.76
   0  10  -9   80.59   19.89
   0  10  -9   76.70   29.98
   0  10  -8  102.70   32.43
   0  10  -8  104.48   24.17
   0  10  -7  633.94   81.61
   0  10  -7  719.84   66.17
   0  10  -6  177.22   44.55
   0  10  -6  128.60   29.10
   0  10  -5  466.12   69.36
   0  10  -5  447.66   56.17
   0  10  -4  210.83   43.53
   0  10  -4  236.47   50.99
   0  10  -4  156.56   34.19
   0  10  -3 1194.94  113.01
   0  10  -3 1128.40   96.26
   0  10  -3  926.63   86.15
   0  10  -2  256.52   46.01
   0  10  -2  175.63   43.35
   0  10  -2  292.91   45.02
   0  10  -1   77.38   27.75
   0 -10   1   32.00    8.05
   0  10  -1   26.95   14.25
   0  10  -1   72.86   28.08
   0  10   0  197.22   31.75
   0  10   0  234.61   47.11
   0  10   0  237.24   48.99
   0  10   1   36.00   21.50
   0  10   1   57.29   25.22
   0  10   2  885.66   94.85
   0  10   2  927.61   93.95
   0  10   3  119.52   34.66
   0  10   3   53.26   19.87
   0  10   4   31.47   19.36
   0  10   4   26.87   14.50
   0  10   5   86.36   31.72
   0  10   6   42.59   25.11
   0  11 -14   12.18   12.67
   0 -11  14  -14.23   18.02
   0 -11  13   -3.30   14.31
   0 -11  13   36.47   17.72
   0  11 -12  196.72   44.45
   0 -11  12  237.28   41.37
   0 -11  12  137.77   38.74
   0  11 -11  156.69   40.81
   0 -11  11  115.97   35.85
   0  11 -10   -5.33    5.43
   0 -11  10   -1.70    9.79
   0  11  -9   49.75   17.70
   0  11  -9   27.89   19.74
   0  11  -8  743.30   91.33
   0  11  -8  775.77   71.53
   0  11  -7  232.83   40.20
   0  11  -7  285.64   57.62
   0  11  -6  453.32   57.94
   0  11  -6  456.18   73.57
   0  11  -5   44.48   21.10
   0  11  -5   32.64   18.43
   0  11  -4   51.16   25.47
   0  11  -4  170.71   37.33
   0  11  -3 1099.28  113.30
   0  11  -3 1017.28   95.64
   0  11  -2  155.02   33.95
   0  11  -2  183.51   40.29
   0  11  -2  155.70   44.53
   0  11  -1  284.05   42.27
   0  11  -1  312.61   55.81
   0  11  -1  293.36   57.12
   0  11   0  318.31   56.50
   0  11   0  311.95   59.63
   0  11   1  862.58   94.28
   0  11   1  677.62   85.17
   0  11   2  155.99   41.03
   0  11   2  179.90   41.58
   0  11   3   67.24   30.17
   0  11   3   76.88   29.58
   0  11   4   58.33   26.30
   0  12 -14   68.89   24.49
   0 -12  13   30.15   12.37
   0  12 -13   14.65   13.65
   0 -12  12   44.72   17.52
   0 -12  12   50.37   25.44
   0  12 -12   83.59   31.69
   0 -12  11    5.39   10.20
   0  12 -11   33.68   20.87
   0  12 -11   16.30   13.07
   0 -12  10   -5.10    8.78
   0  12 -10  -24.60   19.41
   0  12 -10   -3.46    9.25
   0  12  -9  121.22   40.76
   0  12  -9  110.70   27.92
   0  12  -8   40.83   19.92
   0  12  -8   53.72   26.78
   0  12  -7   -7.29    7.42
   0  12  -7   34.25   25.93
   0  12  -6   24.53   18.09
   0  12  -6   24.43   23.81
   0  12  -5   65.59   24.70
   0  12  -5   59.87   29.51
   0  12  -4  645.36   76.96
   0  12  -4  651.54   89.73
   0  12  -3  177.21   42.04
   0  12  -3  203.76   51.24
   0  12  -2  171.64   43.31
   0  12  -2  170.04   46.74
   0  12  -1  112.49   35.48
   0  12  -1  117.57   39.79
   0  12   0  530.97   78.97
   0  12   0  562.36   78.86
   0  12   1  380.19   65.38
   0  12   1  316.73   60.17
   0  12   2   60.77   26.52
   0  13 -13   64.03   28.49
   0 -13  12   33.64   18.61
   0  13 -12    5.37   11.69
   0 -13  11   48.28   18.28
   0  13 -11  103.44   38.42
   0  13 -11   42.47   18.27
   0 -13  10   11.92   15.41
   0  13 -10   42.45   21.61
   0  13 -10   11.84    9.03
   0 -13   9   36.27   21.41
   0  13  -9   34.22   16.42
   0  13  -8   72.85   25.94
   0  13  -8   23.17   25.00
   0  13  -7   13.60    9.43
   0  13  -7  -14.31   23.37
   0  13  -6   -1.15    8.14
   0  13  -6   -2.36   10.74
   0  13  -5  101.30   31.74
   0  13  -5  114.58   43.65
   0  13  -4   36.05   21.88
   0  13  -4    9.65   14.01
   0  13  -3   29.16   19.33
   0  13  -3   22.30   22.24
   0  13  -2   63.18   27.17
   0  13  -2   46.21   25.48
   0  13  -1  202.99   52.91
   0  13   0  145.04   43.12
   0  13   1  187.90   47.57
   0 -14  12   30.45   15.83
   0 -14  11   17.91   10.11
   0  14 -11   19.70   17.48
   0 -14  10   80.04   22.93
   0  14 -10  115.10   30.92
   0 -14   9  131.78   28.04
   0  14  -9  133.11   33.51
   0  14  -8   22.78   14.72
   0  14  -7    7.57   11.77
   0  14  -6    7.53    8.60
   1 -14   1   94.41   34.59
   1 -14   4   31.43   19.34
   1 -14   5   31.65   20.54
  -1  14  -5   65.68   25.86
  -1  14  -5   61.36   29.62
   1 -14   6    2.79   14.36
  -1  14  -6    3.84   11.84
  -1  14  -6   42.96   21.39
   1 -14   7    0.70   10.48
  -1  14  -7  -41.32   25.26
  -1  14  -7  -13.76   12.91
   1 -14   8   53.41   27.43
  -1  14  -8   42.74   18.74
  -1  14  -9   68.65   26.34
  -1  14 -10  165.99   36.04
  -1  13   2  123.45   38.62
  -1  13   1  503.36   76.15
  -1  13   0  438.08   72.15
  -1  13  -1   71.26   28.28
  -1  13  -1   53.04   25.66
  -1  13  -2  140.63   37.52
  -1  13  -2  174.24   47.67
  -1  13  -3  110.34   32.38
  -1  13  -3   67.96   31.27
  -1  13  -4   86.41   28.83
  -1  13  -4   99.57   36.67
  -1  13  -5   41.40   20.33
  -1  13  -5   63.57   31.88
  -1  13  -6  -10.12   11.10
  -1  13  -6    2.56   16.06
   1 -13   6   -8.44   15.13
  -1  13  -7   18.92   14.19
  -1  13  -7   25.74   20.12
   1 -13   7   14.46   15.64
  -1  13  -8   31.69   20.40
  -1  13  -8   77.20   29.79
   1 -13   8   49.51   21.89
  -1  13  -9   26.71   16.14
  -1  13  -9   39.56   19.61
   1 -13   9   18.18   19.69
  -1  13 -10   22.04   13.47
   1 -13  10   19.45   19.80
  -1  13 -10    2.24   11.62
  -1  13 -11    1.97    9.46
  -1  13 -12   -2.50   12.55
  -1  13 -13   67.15   27.91
  -1  12   3  151.92   39.07
  -1  12   2  505.73   72.66
  -1  12   2  588.95   78.12
  -1  12   1  369.40   61.30
  -1  12   1  367.76   63.33
  -1  12   0  546.41   73.18
  -1  12   0  589.85   80.54
  -1  12  -1  287.13   51.02
  -1  12  -1  285.91   57.32
  -1  12  -2  329.07   54.35
  -1  12  -2  398.26   66.35
  -1  12  -3  857.30   86.48
  -1  12  -3 1023.48  109.04
  -1  12  -4  306.44   51.13
  -1  12  -4  212.02   49.77
  -1  12  -5  190.56   39.57
  -1  12  -5  131.09   38.90
  -1  12  -6   21.21   14.73
  -1  12  -6   24.12   16.71
   1 -12   7   86.14   30.07
  -1  12  -7  136.29   41.17
  -1  12  -7  171.71   34.71
   1 -12   8   88.22   30.78
  -1  12  -8   46.57   25.20
  -1  12  -8   59.99   21.05
   1 -12   9   24.35   15.92
  -1  12  -9  -12.99   14.69
  -1  12  -9   22.69   14.77
  -1  12 -10   23.11   18.39
   1 -12  10   11.46   13.39
  -1  12 -11   91.69   32.38
   1 -12  11   59.82   26.83
  -1  12 -12   12.71   17.13
   1 -12  12   39.02   26.86
  -1  12 -13   16.39   17.35
  -1  12 -14    6.14   10.82
  -1  11   5   57.05   24.15
  -1  11   4   35.44   22.25
  -1  11   4    9.30   11.29
  -1  11   3  199.57   45.03
  -1  11   3  227.28   45.88
  -1  11   2  375.17   60.21
  -1  11   2  317.87   54.52
  -1  11   1  565.08   72.03
  -1  11   1  598.28   77.40
  -1  11   0  294.44   51.41
  -1  11   0  231.01   48.84
  -1  11  -1  356.12   54.75
  -1  11  -1  343.44   48.65
   1 -11   1  384.27   35.16
  -1  11  -1  381.54   62.15
  -1  11  -2 1340.56  106.05
  -1  11  -2 1320.84  118.43
  -1  11  -3  252.69   52.31
  -1  11  -3  305.60   49.11
  -1  11  -4 1842.22  121.06
  -1  11  -4 1860.88  142.46
  -1  11  -5  268.08   54.38
  -1  11  -5  290.22   45.41
  -1  11  -6  367.74   61.76
  -1  11  -6  336.00   47.57
   1 -11   7  688.06   75.92
  -1  11  -7  733.50   68.93
  -1  11  -7  762.70   45.46
  -1  11  -7  870.60   95.04
  -1  11  -8   81.25   22.22
  -1  11  -8   58.24   25.38
   1 -11   8   95.11   29.41
  -1  11  -9  160.70   31.67
  -1  11  -9  133.64   34.25
   1 -11   9  149.90   37.29
  -1  11 -10  -13.89   14.52
   1 -11  10   -8.34   11.80
  -1  11 -11   75.29   27.16
   1 -11  11   74.18   28.18
  -1  11 -12   37.19   19.37
   1 -11  12   48.09   25.95
  -1  11 -13    1.58    8.24
   1 -11  13   20.57   15.68
  -1  11 -14   17.33   15.26
  -1  10   6  -33.21   18.59
   1 -10  -5  116.45   43.79
  -1  10   5   63.58   25.11
  -1  10   4   52.70   23.74
  -1  10   4   31.61   18.70
  -1  10   3   51.05   24.50
  -1  10   3   64.13   28.87
  -1  10   2   41.17   22.26
  -1  10   2   48.71   19.95
  -1  10   1  136.33   26.61
   1 -10  -1  100.17   19.15
   1 -10  -1  106.81   14.02
  -1  10   1   95.61   30.57
  -1  10   1  104.13   32.37
  -1  10   0   36.82   19.73
  -1  10   0   18.55   10.10
   1 -10   0   44.63   10.75
  -1  10   0   10.82   11.46
  -1  10  -1  622.81   76.42
  -1  10  -1  703.63   68.61
  -1  10  -1  581.78   67.06
  -1  10  -2  976.41   96.70
  -1  10  -2 1000.07   87.20
  -1  10  -2  925.21   83.06
  -1  10  -3 1107.68  103.65
  -1  10  -3  933.91   82.11
  -1  10  -3  872.94   85.73
  -1  10  -4  237.16   47.48
  -1  10  -4  227.13   38.95
  -1  10  -5  529.68   71.03
  -1  10  -5  570.80   60.22
  -1  10  -6 1150.06  104.53
  -1  10  -6 1086.01   53.21
  -1  10  -6 1068.43   80.77
   1 -10   7  683.98   73.48
  -1  10  -7  750.27   83.88
  -1  10  -7  766.31   65.99
   1 -10   8 1226.96  102.21
  -1  10  -8 1408.49   89.04
  -1  10  -8 1396.85  115.44
  -1  10  -9  185.04   30.63
  -1  10  -9  180.47   41.35
   1 -10   9  164.97   38.42
  -1  10 -10  409.31   59.84
   1 -10  10  324.26   53.27
  -1  10 -11  333.41   52.79
   1 -10  11  248.44   48.41
  -1  10 -12  163.10   36.76
   1 -10  12  141.00   37.23
  -1  10 -13   -8.12    9.92
   1 -10  13   43.06   23.28
   1 -10  14   -4.06   14.69
  -1   9   7   25.43   15.25
   1  -9  -6  -11.07   19.40
  -1   9   6    2.83    7.05
   1  -9  -5   24.04   21.30
  -1   9   5   27.91   15.88
  -1   9   5   27.13   16.46
  -1   9   4   25.74   15.09
  -1   9   4   -6.09    7.07
   1  -9  -3   42.85   11.44
  -1   9   3   29.74   13.65
   1  -9  -3   43.41    8.04
  -1   9   3   38.21   17.44
  -1   9   2  124.59   32.29
  -1   9   2  123.51   32.20
   1  -9  -2   89.69   14.14
   1  -9  -2   78.97   15.30
   1  -9  -2   86.48   11.80
  -1   9   2   89.94   19.97
  -1   9   1   63.00   23.32
  -1   9   1   58.24   21.53
   1  -9  -1   42.07    6.79
   1  -9  -1   58.84   13.96
   1  -9  -1   63.29   11.90
  -1   9   1   67.55   18.18
  -1   9   0    6.36    9.74
  -1   9   0    7.22    9.97
  -1   9   0   15.32    9.41
   1  -9   0   10.41    6.22
  -1   9  -1  507.25   64.51
  -1   9  -1  447.25   55.93
  -1   9  -1  479.17   54.65
  -1   9  -2   22.36   12.63
  -1   9  -2   49.48   19.69
  -1   9  -2   19.93   18.06
  -1   9  -3  216.47   36.66
  -1   9  -3  221.59   41.07
  -1   9  -3  226.18   44.98
   1  -9   4  138.39   40.88
  -1   9  -4  175.04   32.11
  -1   9  -4  155.14   35.02
  -1   9  -4  124.87   32.82
  -1   9  -5 1142.40   98.89
  -1   9  -5  952.95   95.21
  -1   9  -5  987.44   46.98
   1  -9   5  977.27  107.87
  -1   9  -5 1045.30   76.57
  -1   9  -6 1439.12   88.86
   1  -9   6 1423.21  127.12
  -1   9  -6 1400.29  110.64
   1  -9   7 1088.58   90.36
  -1   9  -7 1198.04  100.62
  -1   9  -7 1291.27   81.37
   1  -9   7 1301.49  117.60
  -1   9  -8  166.71   28.24
   1  -9   8  175.56   43.05
  -1   9  -8  227.09   43.70
   1  -9   8  174.49   36.79
   1  -9   9  165.11   40.30
   1  -9   9  218.46   42.07
  -1   9  -9  209.03   42.30
   1  -9  10 1070.84   94.14
  -1   9 -10 1242.94   98.52
   1  -9  10  895.55   96.14
   1  -9  11  921.50   89.02
   1  -9  11  913.58   95.78
  -1   9 -11 1051.74   88.90
   1  -9  12  209.28   42.50
  -1   9 -12  119.72   29.63
   1  -9  13   92.90   29.18
  -1   9 -13   66.11   21.81
   1  -9  14  315.68   52.24
   1  -9  14  264.65   49.72
   1  -9  15  135.54   36.57
  -1   8   7    8.91   10.73
   1  -8  -7   45.86   21.87
  -1   8   6   35.39   13.59
  -1   8   6   47.74   19.81
   1  -8  -6   30.19   24.26
  -1   8   5  149.41   30.16
  -1   8   5  107.27   27.40
   1  -8  -5  156.27   44.00
   1  -8  -4  576.74   38.87
  -1   8   4  464.43   53.92
  -1   8   4  606.10   67.33
  -1   8   3   -0.14    7.83
   1  -8  -3    5.20    4.41
   1  -8  -3    0.97    2.66
   1  -8  -3   26.30   27.47
  -1   8   3    3.91    7.65
   1  -8  -2  398.17   69.99
   1  -8  -2  320.83   29.55
  -1   8   2  396.49   53.24
  -1   8   2  352.54   48.75
   1  -8  -2  344.12   25.49
  -1   8   2  300.30   34.46
   1  -8  -1  202.72   50.45
  -1   8   1  148.08   32.80
   1  -8  -1  157.31   16.15
   1  -8  -1  140.94   18.22
  -1   8   1  137.91   24.86
   1  -8  -1  134.53   43.63
  -1   8   1  155.55   34.32
   1  -8   0  108.20   38.79
  -1   8   0   73.27   22.73
  -1   8   0   83.41   20.11
   1  -8   0   26.12   34.83
  -1   8   0   54.68   19.99
   1  -8   1   26.22   22.81
  -1   8  -1   44.94   21.13
  -1   8  -1   14.94   14.18
  -1   8  -1   31.43   13.91
   1  -8   1   36.20   25.18
  -1   8  -2   20.64   15.52
   1  -8   2   57.38   32.31
  -1   8  -2   23.11   12.63
   1  -8   2   31.39   21.87
  -1   8  -2   16.38   10.68
   1  -8   3   14.20   20.40
  -1   8  -3   15.80   12.06
  -1   8  -3   38.38   17.20
  -1   8  -3   14.78   11.54
   1  -8   3   15.24   15.44
  -1   8  -4  317.67   39.93
  -1   8  -4  274.82   20.70
  -1   8  -4  294.05   47.66
   1  -8   4  234.27   51.59
  -1   8  -4  251.22   44.74
   1  -8   4  290.69   52.22
  -1   8  -5  284.95   36.25
  -1   8  -5  276.38   49.69
   1  -8   5  213.41   50.16
  -1   8  -5  292.87   47.72
   1  -8   5  297.14   51.01
  -1   8  -6  225.91   41.28
   1  -8   6  231.86   51.61
  -1   8  -6  189.65   28.72
   1  -8   6  200.73   35.65
  -1   8  -6  235.65   47.71
   1  -8   6  244.05   45.73
  -1   8  -7   20.95   17.56
   1  -8   7   -3.52    8.66
  -1   8  -7    1.57    4.45
   1  -8   7   16.11   17.87
   1  -8   7   17.24   14.21
  -1   8  -7   13.75   14.70
   1  -8   8  703.51   69.40
  -1   8  -8  684.11   70.40
   1  -8   8  700.55   91.52
   1  -8   8  738.85   78.25
   1  -8   9  881.66   78.42
  -1   8  -9  721.54   71.17
   1  -8   9  685.75   93.17
   1  -8   9  882.07   83.27
   1  -8  10  737.38   73.49
   1  -8  10  818.01   80.41
   1  -8  10  653.10   88.45
  -1   8 -10  711.19   68.92
   1  -8  11  470.96   58.96
   1  -8  11  417.83   57.46
   1  -8  11  456.40   74.10
  -1   8 -11  415.47   50.74
   1  -8  12   33.71   17.49
  -1   8 -12   64.46   19.49
   1  -8  13  494.75   63.12
  -1   8 -13  499.47   52.41
   1  -8  13  575.41   67.63
   1  -8  14  348.91   53.77
   1  -8  14  245.06   45.62
   1  -8  15  413.70   59.80
  -1   7   8  196.93   36.51
   1  -7  -8  238.64   57.38
  -1   7   7  254.97   42.22
   1  -7  -7  309.89   62.35
  -1   7   6  234.70   40.58
  -1   7   6  293.14   36.30
   1  -7  -6  293.02   57.20
   1  -7  -6  267.08   32.43
   1  -7  -6  262.41   35.84
   1  -7  -5  750.20   87.18
  -1   7   5  870.86   66.38
   1  -7  -5  943.93   47.02
  -1   7   5  893.51   81.29
   1  -7  -5  875.78   68.38
   1  -7  -5 1139.94  108.99
   1  -7  -4  159.96   55.61
   1  -7  -4  251.47   23.05
  -1   7   4  212.75   38.47
   1  -7  -4  186.62   19.17
   1  -7  -4  151.07   39.01
  -1   7   4  152.86   28.09
   1  -7  -4  185.10   31.26
   1  -7  -3  197.83   20.83
   1  -7  -3  282.73   66.39
  -1   7   3  229.87   38.80
   1  -7  -3  226.07   20.42
   1  -7  -3  143.20   39.23
  -1   7   3  216.98   34.59
   1  -7  -3  225.16   34.95
   1  -7  -2  101.01   38.34
  -1   7   2  167.18   32.60
   1  -7  -2  174.68   19.64
   1  -7  -2  156.17   17.16
  -1   7   2  114.24   25.86
   1  -7  -2  141.97   38.55
   1  -7  -2  124.71   26.34
  -1   7   2  192.17   25.96
   1  -7  -1    6.25   15.06
  -1   7   1   19.69   14.19
   1  -7  -1   21.70   14.30
  -1   7   1   51.18   14.70
   1  -7  -1   42.14    9.47
   1  -7  -1   64.92   26.48
  -1   7   1   45.99   19.80
   1  -7   0  604.92   78.31
  -1   7   0  637.72   63.73
  -1   7   0  636.91   54.76
   1  -7   0  674.49   28.74
   1  -7   0  673.57   85.76
  -1   7   0  805.94   67.72
  -1   7  -1   22.55   16.52
   1  -7   1    9.42   21.56
  -1   7  -1    5.40    9.72
  -1   7  -1    6.49    8.03
  -1   7  -2   15.28    8.89
  -1   7  -2   19.18   12.97
  -1   7  -2   21.43   11.60
  -1   7  -3    9.58    9.28
  -1   7  -3    3.82    9.01
  -1   7  -3   10.03    9.23
  -1   7  -3    9.00    3.32
  -1   7  -4   36.49   18.57
  -1   7  -4   31.29   15.27
   1  -7   4   33.74   16.91
  -1   7  -4   11.56    8.83
   1  -7   5  685.69   83.00
  -1   7  -5  789.17   72.31
  -1   7  -5  757.05   55.00
   1  -7   5  788.69   74.28
  -1   7  -5  698.36   76.72
   1  -7   6  163.89   41.37
  -1   7  -6  104.27   26.20
  -1   7  -6  122.66   21.27
   1  -7   6  103.10   24.62
  -1   7  -6  143.01   36.94
   1  -7   6  155.34   32.13
  -1   7  -7  170.86   24.39
   1  -7   7  109.33   26.02
  -1   7  -7  110.56   26.91
   1  -7   7   96.24   33.02
   1  -7   7  136.06   28.24
   1  -7   8  226.11   37.01
   1  -7   8  150.28   41.45
  -1   7  -8  222.64   35.81
   1  -7   8  235.53   37.33
   1  -7   9   60.35   18.87
   1  -7   9   73.21   21.22
   1  -7   9   48.18   23.87
  -1   7  -9   48.48   17.20
  -1   7 -10  609.77   57.88
   1  -7  10  549.91   76.14
   1  -7  10  510.22   57.85
  -1   7 -11   11.06   10.87
   1  -7  11   26.37   16.80
  -1   7 -12  302.69   37.11
   1  -7  12  289.74   46.00
   1  -7  13  418.11   55.99
  -1   7 -13  408.44   41.35
   1  -7  13  586.32   65.88
   1  -7  14  373.98   53.49
   1  -7  14  412.57   57.21
   1  -7  15   37.55   22.32
   1  -6  -9  362.88   70.36
  -1   6   8  104.32   24.58
   1  -6  -8  191.26   50.96
   1  -6  -7  451.48   77.71
  -1   6   7  505.63   40.89
  -1   6   7  528.07   57.23
   1  -6  -7  532.59   50.18
   1  -6  -7  569.13   77.30
  -1   6   6  933.04   60.87
   1  -6  -6 1035.01   43.37
   1  -6  -6  985.99  123.84
  -1   6   6  942.31   78.25
   1  -6  -6 1034.62  100.82
   1  -6  -6  949.21   67.60
  -1   6   5  381.55   48.60
   1  -6  -5  458.09   83.60
   1  -6  -5  380.21   57.91
  -1   6   5  366.19   38.71
   1  -6  -5  373.47   25.98
   1  -6  -5  390.45   42.82
   1  -6  -5  341.20   53.42
   1  -6  -4  709.53   37.36
  -1   6   4  777.06   68.64
   1  -6  -4  859.79  114.89
   1  -6  -4  539.40   70.01
  -1   6   4  668.72   55.31
   1  -6  -4  673.74   37.85
   1  -6  -4  748.34   58.46
   1  -6  -3  511.96   31.87
   1  -6  -3  664.40   93.24
  -1   6   3  531.39   55.56
   1  -6  -3  529.44   69.07
  -1   6   3  559.18   51.46
   1  -6  -3  592.89   33.75
   1  -6  -3  571.27   51.23
   1  -6  -2  621.18   84.25
  -1   6   2  560.67   56.76
   1  -6  -2  627.81   35.97
   1  -6  -2  630.10   54.37
  -1   6   2  610.77   44.69
  -1   6   2  672.79   57.88
   1  -6  -2  508.40   66.02
   1  -6  -1 2005.01  143.41
  -1   6   1 2062.47  108.41
   1  -6  -1 1751.32  125.47
  -1   6   1 1970.17  107.16
   1  -6  -1 1968.11   76.59
   1  -6  -1 2056.77  105.78
  -1   6   1 2038.75   92.16
  -1   6   0  132.52   24.66
  -1   6   0  143.45   27.55
   1  -6   0  164.79   36.74
   1  -6   0  158.25   29.32
  -1   6   0  158.72   25.33
   1  -6   0  152.88   13.56
  -1   6  -1   17.77    9.98
  -1   6  -1   19.88   13.33
  -1   6  -1   24.67   10.65
  -1   6  -2 1053.08   68.32
  -1   6  -2 1166.72   80.55
  -1   6  -2 1164.10   82.26
  -1   6  -3  434.78   40.03
  -1   6  -3  468.83   52.89
  -1   6  -3  340.72   43.47
  -1   6  -4   59.32   22.56
  -1   6  -4   63.98   19.27
  -1   6  -4   40.84   11.17
  -1   6  -5   15.86   12.81
   1  -6   5   21.52   11.23
  -1   6  -5   23.05   14.10
  -1   6  -5   19.76    8.65
  -1   6  -6    3.63    5.29
   1  -6   6    4.21    8.51
  -1   6  -6   16.43   11.39
   1  -6   7  156.49   29.07
  -1   6  -7  157.87   27.79
   1  -6   8   35.39   16.46
  -1   6  -8   23.88   10.92
   1  -6   9  485.74   51.90
  -1   6  -9  524.89   48.86
   1  -6  10  105.83   21.77
  -1   6 -10   78.85   19.06
   1  -6  10   48.53   17.87
   1  -6  11   62.16   17.45
   1  -6  11   36.77   16.32
  -1   6 -11   45.78   13.80
  -1   6 -12  280.55   31.24
   1  -6  12  221.44   38.40
   1  -6  12  268.45   31.28
   1  -6  13   61.97   22.98
   1  -6  13  142.54   32.25
   1  -6  14  231.14   39.88
   1  -6  14  254.65   44.32
   1  -5 -10  136.30   44.93
  -1   5   9  184.79   30.09
  -1   5   9  181.02   29.93
   1  -5  -9  206.29   50.66
  -1   5   8   22.87   13.01
   1  -5  -8   34.08    9.41
   1  -5  -8   44.31   14.82
  -1   5   8   50.18   16.11
   1  -5  -8   47.72   25.76
  -1   5   7   51.86   17.38
   1  -5  -7   -5.13   23.65
  -1   5   7   57.17   14.89
   1  -5  -7   60.32   16.11
   1  -5  -7   83.52   14.02
   1  -5  -7   39.55   11.66
   1  -5  -7  106.80   33.95
  -1   5   7   76.09   13.56
   1  -5  -6 1373.93   47.29
   1  -5  -6 1102.15   86.53
  -1   5   6 1261.71   66.00
   1  -5  -6 1234.34  124.77
  -1   5   6 1384.11   89.25
   1  -5  -6 1318.43   75.98
   1  -5  -6 1255.89  105.66
   1  -5  -5 1130.21  123.72
  -1   5   5 1023.72   75.30
  -1   5   5  893.24   56.87
   1  -5  -5  951.70   81.90
   1  -5  -5  998.73   40.98
   1  -5  -5 1058.73   52.44
   1  -5  -5 1002.24   87.93
   1  -5  -5 1042.06   65.50
   1  -5  -4  689.98   33.08
   1  -5  -4  901.12  105.34
  -1   5   4  685.06   60.29
   1  -5  -4  598.78   65.11
  -1   5   4  661.30   49.28
   1  -5  -4  699.88   38.84
   1  -5  -4  607.44   49.18
   1  -5  -3  346.55   49.85
   1  -5  -3  441.01   25.81
   1  -5  -3  355.38   61.50
  -1   5   3  513.94   49.58
   1  -5  -3  424.52   28.04
   1  -5  -3  433.56   40.84
  -1   5   3  455.91   41.90
   1  -5  -2 1412.84  111.92
  -1   5   2 1416.86   84.16
   1  -5  -2 1323.96   55.19
   1  -5  -2 1376.46   76.09
  -1   5   2 1344.44   65.08
  -1   5   2 1234.20   74.69
   1  -5  -2 1390.65   98.59
   1  -5  -1  692.12   71.29
  -1   5   1  695.00   55.57
   1  -5  -1  645.70   38.28
   1  -5  -1  643.50   51.09
  -1   5   1  701.23   47.20
   1  -5  -1  702.32   68.39
  -1   5   1  659.37   53.69
  -1   5   0 1288.58   74.95
   1  -5   0 1274.78   45.96
  -1   5   0 1251.61   69.55
   1  -5   0 1151.77   73.08
  -1   5   0 1176.65   75.05
   1  -5   0 1226.60   89.89
  -1   5  -1 1917.47   90.68
   1  -5   1 1932.96  101.21
  -1   5  -1 1845.70   93.91
  -1   5  -1 2057.16  102.64
  -1   5  -2  280.44   30.01
  -1   5  -2  318.21   20.41
  -1   5  -2  266.99   34.59
  -1   5  -2  252.27   34.89
  -1   5  -3 1079.10   73.11
  -1   5  -3  975.34   55.92
   1  -5   3 1063.81   68.83
  -1   5  -3 1077.43   77.91
  -1   5  -4 1491.66   86.52
   1  -5   4 1546.39  101.31
   1  -5   4 1398.48   78.19
   1  -5   4 1648.68   83.98
  -1   5  -4 1515.34   69.52
  -1   5  -4 1530.85  100.88
   1  -5   5   43.65   13.31
   1  -5   5   56.55   15.94
  -1   5  -5   27.56   13.50
   1  -5   5   33.70   15.29
  -1   5  -5   33.35   10.04
   1  -5   6   46.14   18.75
  -1   5  -6   44.94   13.76
   1  -5   6   61.56   15.28
   1  -5   6   45.93   14.75
   1  -5   7  185.14   36.50
  -1   5  -7  228.50   30.17
   1  -5   7  169.27   27.36
   1  -5   7  174.44   23.58
   1  -5   8  254.25   28.90
  -1   5  -8  240.73   30.26
   1  -5   8  247.61   34.39
   1  -5   8  245.02   41.87
   1  -5   9   37.10   17.25
   1  -5   9   19.54    8.37
   1  -5   9    8.96   10.38
  -1   5  -9   22.32    9.76
   1  -5   9   18.47   11.29
   1  -5  10   77.79   16.27
   1  -5  10   72.77   19.78
  -1   5 -10   53.87   13.03
   1  -5  11   61.03   13.60
  -1   5 -11   96.61   16.33
   1  -5  11   74.72   20.81
   1  -5  11   67.62   14.44
   1  -5  11   66.93   13.05
   1  -5  12  130.28   29.69
   1  -5  12  149.11   18.04
   1  -5  12  169.19   31.41
   1  -5  13  236.56   37.22
   1  -5  13  216.31   38.26
   1  -5  14   -1.31    8.18
   1  -5  14   21.53   12.78
  -1   4  11   80.71   22.91
   1  -4 -11  109.12   38.59
  -1   4  10  190.01   32.29
   1  -4 -10  251.72   57.72
  -1   4   9    1.27    6.28
   1  -4  -9   19.90   15.93
  -1   4   9   18.76   10.43
   1  -4  -9    1.33    4.27
  -1   4   8   68.96   17.54
   1  -4  -8   51.96   21.01
  -1   4   8   56.09   16.59
   1  -4  -8   68.18    9.46
   1  -4  -8   78.26    8.99
   1  -4  -8   89.31   19.50
   1  -4  -7 1214.72   51.13
   1  -4  -7 1255.41   57.90
  -1   4   7 1222.03   77.61
   1  -4  -7 1404.64  117.04
  -1   4   7 1258.88   73.25
   1  -4  -7 1229.37   70.51
   1  -4  -7 1188.69  102.99
   1  -4  -6   30.71   25.43
  -1   4   6   15.23    9.73
  -1   4   6   42.49    9.86
   1  -4  -6   40.61   19.30
   1  -4  -6   34.05    5.21
   1  -4  -6   24.03    9.82
   1  -4  -6   59.17   18.15
   1  -4  -5  222.64   35.86
  -1   4   5  277.57   34.56
   1  -4  -5  295.36   57.83
  -1   4   5  215.00   23.52
   1  -4  -5  274.98   42.31
   1  -4  -5  241.32   15.64
  -1   4   5  219.44   26.24
   1  -4  -5  283.50   25.32
   1  -4  -5  295.22   30.43
  -1   4   4   91.17   20.97
   1  -4  -4  228.73   51.25
   1  -4  -4  127.56   11.23
  -1   4   4  106.76   17.40
   1  -4  -4  136.95   20.74
   1  -4  -4  125.83   15.59
   1  -4  -4   96.45   23.49
  -1   4   4  154.75   20.17
   1  -4  -3  749.33   77.64
  -1   4   3  700.27   55.48
   1  -4  -3  720.39   62.66
  -1   4   3  777.87   49.50
   1  -4  -3  712.89   30.43
   1  -4  -3  773.57   38.21
   1  -4  -3  745.24   48.59
  -1   4   2 2933.15  111.92
   1  -4  -2 2640.17  128.49
   1  -4  -2 2833.27   90.95
  -1   4   2 3134.91  103.54
   1  -4  -2 3058.71  111.94
   1  -4  -2 2868.73  145.33
  -1   4   2 2887.15  119.09
   1  -4  -1 1567.67   91.25
  -1   4   1 1662.57   79.76
   1  -4  -1 1542.92   62.05
  -1   4   1 1668.46   71.24
   1  -4  -1 1639.70   77.59
  -1   4   1 1712.92   81.94
   1  -4  -1 1484.00   91.79
  -1   4   0  688.45   47.49
   1  -4   0  712.34   31.55
   1  -4   0  749.82   51.45
  -1   4   0  727.18   47.40
   1  -4   0  740.14   59.07
  -1   4   0  728.48   51.50
  -1   4  -1  619.76   26.74
  -1   4  -1  636.41   42.73
   1  -4   1  675.75   51.57
  -1   4  -1  624.11   47.13
  -1   4  -1  583.08   46.08
   1  -4   2 2997.10  114.42
  -1   4  -2 2997.37  104.29
  -1   4  -2 3025.14  119.65
  -1   4  -2 3060.98  125.58
   1  -4   3  352.25   32.69
  -1   4  -3  434.50   30.96
   1  -4   3  390.19   33.48
  -1   4  -3  375.09   37.34
   1  -4   3  445.55   44.93
  -1   4  -3  396.07   44.62
   1  -4   4  298.61   31.76
   1  -4   4  394.35   32.58
  -1   4  -4  375.55   28.50
   1  -4   4  440.27   46.02
  -1   4  -4  361.41   35.56
   1  -4   5  238.04   24.00
  -1   4  -5  252.33   28.89
   1  -4   5  204.49   26.52
   1  -4   5  233.29   34.17
   1  -4   6  592.89   47.00
   1  -4   6  619.81   39.65
  -1   4  -6  644.98   46.05
   1  -4   6  585.50   55.66
   1  -4   7 1333.54   76.88
   1  -4   7 1631.53   69.24
   1  -4   7 1525.68   96.00
  -1   4  -7 1527.78   72.77
   1  -4   7 1688.68  111.91
   1  -4   8  256.30   32.52
   1  -4   8  315.93   42.90
   1  -4   8  250.88   44.89
  -1   4  -8  292.61   27.86
   1  -4   8  280.75   25.99
  -1   4  -9    6.98    5.82
   1  -4   9   -3.28   12.76
   1  -4   9    9.05    5.19
   1  -4   9    9.73   10.54
   1  -4   9    8.97    8.21
   1  -4  10   97.32   15.17
   1  -4  10   99.16   13.07
   1  -4  10   99.00   14.59
   1  -4  10   72.23   17.71
  -1   4 -10   93.30   13.66
   1  -4  11  216.27   16.78
   1  -4  11  272.35   24.73
   1  -4  11  252.02   38.53
   1  -4  11  195.67   14.76
   1  -4  11  224.43   32.94
   1  -4  12  120.97   25.22
   1  -4  12  125.35   28.48
   1  -4  13   14.94   11.10
   1  -4  13    7.97    8.55
   1  -4  14   19.77   13.17
  -1   3  12  477.84   57.84
  -1   3  11  135.35   28.74
   1  -3 -11  107.81   37.65
  -1   3  10   44.90   11.12
  -1   3  10   45.61   16.39
   1  -3 -10   57.70   17.56
   1  -3 -10   64.86   30.43
  -1   3   9    7.51    4.26
  -1   3   9    1.63    5.10
   1  -3  -9    7.65    8.82
   1  -3  -9    1.85    9.95
  -1   3   8  168.76   24.00
   1  -3  -8  108.06   32.18
  -1   3   8  159.56   26.31
   1  -3  -8  110.06   21.12
   1  -3  -7  300.26   18.76
   1  -3  -7  288.22   20.09
   1  -3  -7  284.03   48.12
  -1   3   7  338.87   34.33
   1  -3  -7  315.00   49.14
  -1   3   7  311.07   33.76
   1  -3  -7  312.92   32.93
  -1   3   6  277.52   31.87
   1  -3  -6  192.01   41.19
   1  -3  -6  337.25   46.91
  -1   3   6  257.31   20.67
   1  -3  -6  231.33   29.63
   1  -3  -6  269.46   29.05
   1  -3  -6  287.55   23.27
   1  -3  -5   17.75    6.47
   1  -3  -5   36.29   22.18
  -1   3   5   30.95   11.68
   1  -3  -5   25.82    4.06
   1  -3  -5   24.41   11.39
   1  -3  -5   29.54    8.49
  -1   3   5   22.91    7.90
  -1   3   5   37.61    9.19
  -1   3   4 1136.46   64.92
   1  -3  -4 1313.83   99.86
   1  -3  -4 1216.78   71.69
  -1   3   4 1152.38   53.97
   1  -3  -4 1179.42   36.80
  -1   3   4 1249.78   59.67
   1  -3  -4 1296.32   53.74
   1  -3  -4 1284.12   60.61
   1  -3  -3 1447.18   43.31
   1  -3  -3 1546.17   96.16
  -1   3   3 1546.24   73.84
  -1   3   3 1503.43   63.83
   1  -3  -3 1561.29   79.44
   1  -3  -3 1408.56   55.66
  -1   3   3 1481.28   62.77
   1  -3  -3 1511.13   65.25
   1  -3  -2    5.95    7.07
  -1   3   2   35.52   12.30
   1  -3  -2   12.21    8.29
   1  -3  -2    7.72    3.99
  -1   3   2    4.11    6.74
   1  -3  -2   12.41    9.10
   1  -3  -1 1117.93   64.68
  -1   3   1 1251.56   59.26
   1  -3  -1 1172.73   64.54
  -1   3   1 1190.09   57.52
   1  -3  -1 1123.62   47.78
  -1   3   1 1178.46   53.39
   1  -3  -1 1259.65   58.46
   1  -3   0   32.74    5.99
  -1   3   0   37.10    9.83
  -1   3   0   33.77   10.06
   1  -3   0   37.56   12.55
  -1   3   0   31.99   10.04
   1  -3   0   36.82   10.41
  -1   3  -1 2867.79   81.67
  -1   3  -1 2786.46   92.51
  -1   3  -1 2831.25  102.43
  -1   3  -1 2888.84  105.53
   1  -3   1 2916.51  108.81
   1  -3   2 2167.99   82.25
  -1   3  -2 2344.79   76.97
   1  -3   2 2318.45   80.57
  -1   3  -2 2329.56   88.81
   1  -3   2 2218.29   93.73
  -1   3  -2 2218.90   97.11
   1  -3   3  367.99   30.51
   1  -3   3  437.73   28.86
   1  -3   3  431.10   37.42
  -1   3  -3  465.95   34.79
   1  -3   4  632.65   42.03
   1  -3   4  681.81   36.38
  -1   3  -4  655.65   40.91
   1  -3   4  583.68   45.68
   1  -3   5 1389.31   68.34
   1  -3   5 1507.52   58.16
  -1   3  -5 1335.54   61.57
   1  -3   5 1331.47   73.42
   1  -3   6  759.70   50.10
   1  -3   6  821.25   69.73
   1  -3   6  667.35   52.61
  -1   3  -6  796.01   43.71
   1  -3   6  851.29   41.06
  -1   3  -7  149.52   17.30
   1  -3   7  167.54   33.39
   1  -3   7  166.48   17.50
   1  -3   7  142.53   21.65
   1  -3   7  148.10   24.86
  -1   3  -8  479.13   29.52
   1  -3   8  521.12   60.61
   1  -3   8  388.72   40.40
   1  -3   8  511.33   31.67
   1  -3   8  471.80   30.19
   1  -3   8  508.50   43.16
   1  -3   9   22.14   14.87
   1  -3   9   22.88   10.48
   1  -3   9   31.66    7.77
   1  -3   9   11.55    4.44
   1  -3   9   16.74    4.43
   1  -3  10  285.23   37.80
   1  -3  10  370.19   43.32
   1  -3  10  344.20   25.53
   1  -3  10  305.30   35.93
   1  -3  11  868.78   70.48
   1  -3  11  894.16   41.91
   1  -3  11  915.89   69.14
   1  -3  11  937.36   64.41
   1  -3  12   55.38   19.02
   1  -3  12   22.45   11.00
   1  -3  13   64.16   20.67
   1  -3  13   49.72   15.70
   1  -3  14   74.49   24.38
  -1   2  13  191.62   38.31
  -1   2  12  144.92   31.44
   1  -2 -12  178.81   51.36
  -1   2  11   38.12   16.57
   1  -2 -11   74.59   32.87
  -1   2  10   21.51   11.37
  -1   2  10   39.32    8.68
   1  -2 -10    6.96   13.38
  -1   2   9   98.17   21.45
  -1   2   9  162.85   19.15
   1  -2  -9  194.15   43.47
  -1   2   8 1022.70   65.79
  -1   2   8 1096.50   55.23
   1  -2  -8  995.05   93.98
   1  -2  -7   96.88   27.74
  -1   2   7  119.41   19.88
  -1   2   7  118.85   17.82
   1  -2  -6  308.61   26.71
   1  -2  -6  343.62   19.74
   1  -2  -6  310.32   42.18
  -1   2   6  350.28   30.19
   1  -2  -5  151.88   32.62
   1  -2  -5  183.01   15.99
   1  -2  -5  175.44   21.06
  -1   2   5  148.24   19.58
  -1   2   5  158.86   20.02
   1  -2  -5  161.33   18.87
  -1   2   4  501.00   28.28
   1  -2  -4  486.18   34.50
   1  -2  -4  608.14   56.10
  -1   2   4  502.53   35.34
   1  -2  -4  527.77   31.46
  -1   2   4  495.54   33.82
   1  -2  -3 1743.20   70.13
  -1   2   3 1815.15   63.81
   1  -2  -3 1858.95   64.02
  -1   2   3 1910.99   69.94
  -1   2   3 1808.42   71.85
   1  -2  -3 1928.25   89.83
  -1   2   2    7.53    5.16
   1  -2  -2    1.32    5.64
  -1   2   2    4.41    4.57
   1  -2  -2   12.92    6.34
   1  -2  -2    3.05    3.92
  -1   2   2    9.57    5.44
   1  -2  -2    8.09    5.61
  -1   2   1 1548.35   58.73
   1  -2  -1 1544.53   61.86
  -1   2   1 1691.28   59.70
   1  -2  -1 1533.30   62.06
   1  -2  -1 1572.45   55.24
  -1   2   1 1658.71   59.36
   1  -2  -1 1542.84   59.42
   1  -2   0 3737.14  102.05
  -1   2   0 3920.68  105.61
  -1   2   0 3795.05   98.43
   1  -2   0 3729.46   99.65
  -1   2   0 3830.69  110.69
  -1   2   0 3791.98  112.23
   1  -2   0 3743.51  113.65
   1  -2   1  137.14   14.61
  -1   2  -1  157.66   14.10
  -1   2  -1  158.10   16.64
  -1   2  -1  151.71   18.13
   1  -2   2 1157.98   50.07
   1  -2   2 1209.58   45.74
  -1   2  -2 1305.39   63.39
  -1   2  -2 1265.11   50.95
   1  -2   2 1195.75   52.43
   1  -2   3   97.90   13.90
  -1   2  -3  104.81   14.64
   1  -2   3  118.44   15.27
  -1   2  -3   96.82   12.68
   1  -2   4  215.58   21.80
  -1   2  -4  224.63   23.74
   1  -2   4  207.45   28.38
  -1   2  -4  247.38   19.56
   1  -2   4  211.79   21.50
   1  -2   5 1709.93   72.47
  -1   2  -5 1652.18   75.40
   1  -2   5 1737.81   94.36
   1  -2   5 1641.70   70.67
  -1   2  -5 1844.56   61.01
  -1   2  -6  428.80   37.12
   1  -2   6  315.59   29.83
   1  -2   6  409.86   24.53
  -1   2  -6  405.21   23.31
   1  -2   6  432.97   47.25
   1  -2   6  381.55   31.59
   1  -2   7   44.39   16.83
   1  -2   7   44.95    7.14
   1  -2   7   35.68    9.91
  -1   2  -7   49.60   14.38
   1  -2   7   48.19   11.09
   1  -2   8   63.48   14.09
   1  -2   8   59.43   18.97
   1  -2   9  369.77   44.87
   1  -2   9  504.83   47.09
   1  -2   9  499.41   61.13
   1  -2   9  403.51   36.95
   1  -2  10  930.04   67.68
   1  -2  10  873.91   74.82
   1  -2  10  772.70   54.68
   1  -2  11   12.72    9.02
   1  -2  11    0.71    7.75
   1  -2  11    0.05    6.00
   1  -2  12    5.17    5.08
   1  -2  12    7.96    6.78
   1  -2  13  120.86   28.55
   1  -2  14   96.56   26.69
  -1   1  14  104.79   30.04
   1  -1 -13  278.90   63.95
  -1   1  13  337.47   49.70
   1  -1 -12   59.61   29.50
  -1   1  12   79.14   24.35
   1  -1 -11   48.08   28.80
  -1   1  11   24.73   13.11
   1  -1 -10  209.36   48.17
  -1   1  10  163.74   28.75
  -1   1  10  159.31    9.73
   1  -1  -9  783.96   86.35
  -1   1   9  700.38   31.78
  -1   1   9  621.92   52.90
  -1   1   9  676.76   25.81
   1  -1  -8  228.25   43.67
  -1   1   8  169.16   15.81
  -1   1   8  139.91   23.02
  -1   1   8  129.64    9.95
   1  -1  -7  262.49   43.06
  -1   1   7  271.86   20.99
  -1   1   7  239.47   13.54
  -1   1   6  246.53   19.79
  -1   1   6  263.28   12.91
   1  -1  -5 1232.16   38.53
  -1   1   5 1170.34   32.53
  -1   1   5 1179.86   47.54
   1  -1  -5 1198.30   69.03
   1  -1  -5 1166.96   43.84
   1  -1  -5 1248.04   56.89
  -1   1   5 1215.58   56.95
  -1   1   5 1268.24   77.54
  -1   1   4 1307.71   48.11
   1  -1  -4 1347.15   70.17
   1  -1  -4 1348.11   43.82
   1  -1  -4 1262.51   45.65
   1  -1  -4 1252.31   52.80
  -1   1   4 1287.79   55.36
  -1   1   4 1415.78   75.22
   1  -1  -3  913.82   34.39
   1  -1  -3  830.09   34.02
  -1   1   3  782.83   38.33
   1  -1  -3  800.67   37.02
  -1   1   3  850.16   33.89
   1  -1  -3  759.41   41.20
   1  -1  -2  430.84   23.00
   1  -1  -2  402.85   22.95
  -1   1   2  432.44   25.09
  -1   1   2  452.04   21.21
   1  -1  -2  407.81   23.15
  -1   1   2  411.31   21.47
   1  -1  -2  404.40   21.89
  -1   1   1 4102.33   99.79
   1  -1  -1 3999.12  100.27
   1  -1  -1 3855.08  105.59
   1  -1  -1 3840.93  103.64
   1  -1  -1 3934.70  103.80
  -1   1   1 3959.96  103.04
   1  -1   1  674.79   29.15
   1  -1   2 3027.21   88.15
  -1   1  -2 2935.96   89.25
  -1   1  -2 3114.38  100.58
   1  -1   2 2972.56   83.80
   1  -1   2 2783.70   93.94
   1  -1   2 3075.41   83.72
  -1   1  -2 3098.91   82.44
   1  -1   3  304.59   22.74
  -1   1  -3  295.82   23.16
   1  -1   3  285.48   18.06
   1  -1   3  303.06   18.68
  -1   1  -3  315.42   17.74
   1  -1   3  290.84   27.24
   1  -1   4 1555.62   61.37
  -1   1  -4 1496.27   62.75
   1  -1   4 1413.35   47.26
  -1   1  -4 1462.78   76.56
   1  -1   4 1570.16   51.53
   1  -1   4 1445.09   73.64
  -1   1  -5   15.31    8.53
   1  -1   5   13.91    9.61
   1  -1   5   14.85    7.52
   1  -1   5    2.89    2.74
  -1   1  -5    2.83    4.86
   1  -1   5   10.43    3.37
   1  -1   6  552.63   37.35
  -1   1  -6  559.99   40.80
   1  -1   6  530.37   51.07
  -1   1  -7  247.49   28.42
   1  -1   7  230.61   24.30
  -1   1  -7  213.58   37.61
   1  -1   7  225.10   35.39
   1  -1   7  273.23   37.85
   1  -1   8  290.73   29.10
  -1   1  -8  297.95   33.10
   1  -1   8  303.71   43.78
   1  -1   8  321.12   46.56
   1  -1   8  314.89   34.43
   1  -1   9  201.79   24.65
   1  -1   9  301.72   46.22
   1  -1   9  268.49   33.30
   1  -1  10    4.53    4.73
   1  -1  10   -2.79    9.68
   1  -1  10    6.09    5.89
   1  -1  11  142.39   21.63
   1  -1  11  146.77   24.88
   1  -1  11  121.15   24.57
   1  -1  12   41.33   12.24
   1  -1  12   87.18   22.85
   1  -1  13   52.67   19.29
   1  -1  14  248.61   42.58
  -1   0  14  176.93   37.58
  -1   0  13  129.69   30.68
  -1   0  12  150.87   31.05
  -1   0  11   41.98    7.69
   1   0 -11   51.38   29.39
  -1   0  11   21.41   11.86
  -1   0  10   11.54    5.08
  -1   0  10   34.58   12.47
  -1   0   9  669.00   33.24
   1   0  -9  651.30   78.25
  -1   0   9  737.55   56.52
  -1   0   8   87.01   10.70
  -1   0   8   77.60   23.66
   1   0  -8   84.31   27.08
  -1   0   8   87.73   17.61
  -1   0   7  103.66   24.91
  -1   0   7  107.22   11.50
  -1   0   6  559.89   26.58
  -1   0   6  585.10   20.13
  -1   0   6  503.87   50.76
   1   0  -5   66.23    6.07
  -1   0   5   79.67   13.32
  -1   0   5   65.82    7.88
  -1   0   5   63.09   15.60
   1   0  -5   68.52    6.94
  -1   0   4 3710.18   95.57
  -1   0   4 3710.58   94.02
  -1   0   4 3689.03  111.19
   1   0  -4 3819.56  111.19
   1   0  -4 3823.55   93.28
  -1   0   4 3799.21  133.49
  -1   0   3  424.91   20.43
  -1   0   3  452.31   34.23
  -1   0   3  406.40   25.01
   1   0  -3  446.31   25.18
   1   0  -3  472.58   20.55
  -1   0   2 2243.46   55.01
  -1   0   2 2312.05   63.80
   1   0  -2 2280.78   63.19
   1   0  -2 2289.42   66.96
   1   0  -2 2378.09   78.77
  -1   0   2 2303.01   76.16
  -1   0  -1 3676.42   95.53
   1   0   1 3621.38   94.89
   1   0   1 3781.61   94.76
  -1   0  -1 3663.86   93.70
   1   0   1 3801.65   95.88
  -1   0  -1 3553.14   93.42
   1   0   1 3608.34   92.99
  -1   0  -1 3872.05   95.68
  -1   0  -2    2.21    3.48
   1   0   2    1.13    3.27
   1   0   2    2.03    2.25
  -1   0  -2    2.96    3.31
   1   0   2    2.15    3.73
  -1   0  -2    2.59    6.06
  -1   0  -3 3533.77  123.26
   1   0   3 3621.19  119.30
  -1   0  -3 3635.09  105.68
   1   0   3 3685.38  103.39
   1   0   3 3712.96   90.96
  -1   0  -3 3593.21   93.02
   1   0   4 1155.60   36.19
  -1   0  -4 1223.69   69.66
   1   0   4 1181.02   65.18
   1   0   4 1192.68   48.99
  -1   0  -4 1115.42   51.05
   1   0   4 1172.82   35.08
  -1   0  -4 1110.28   37.35
  -1   0  -5 1874.51  100.34
   1   0   5 1910.56  106.15
   1   0   5 1990.76   97.38
   1   0   5 2021.42   72.33
  -1   0  -5 2020.84   77.53
   1   0   6  246.83   22.68
  -1   0  -6  247.87   25.85
   1   0   6  272.30   41.21
   1   0   6  262.14   36.14
   1   0   7  180.30   20.25
   1   0   7  227.55   36.56
  -1   0  -7  166.38   34.28
  -1   0  -7  156.08   21.84
   1   0   7  133.22   20.40
   1   0   7  174.05   36.58
  -1   0  -8  218.02   26.89
   1   0   8  200.12   22.59
  -1   0  -8  243.09   45.18
   1   0   8  196.71   36.28
   1   0   8  175.61   24.73
   1   0   8  220.40   40.33
   1   0   9  234.98   25.19
  -1   0  -9  157.07   39.18
  -1   0  -9  196.44   27.70
   1   0   9  194.29   28.07
   1   0   9  217.61   40.00
   1   0  10  168.79   21.70
  -1   0 -10  186.84   44.55
   1   0  10  210.25   34.77
   1   0  10  189.23   29.77
   1   0  11   41.33   11.12
   1   0  11   26.78   11.13
   1   0  12  166.08   31.52
   1   0  13  163.31   32.95
   1   0  14   -5.97    8.57
  -1  -1  14  162.64   36.36
  -1  -1  13   54.23   19.70
  -1  -1  12   55.02   10.62
  -1  -1  12   29.23   16.11
  -1  -1  11   61.98   11.80
  -1  -1  11   67.21   19.22
  -1  -1  10  535.40   34.80
  -1  -1  10  506.49   49.37
  -1  -1   9   88.76   13.37
  -1  -1   9  102.21   27.31
   1   1  -9   83.67   27.55
  -1  -1   9  103.41   20.89
  -1  -1   8   14.10    6.38
  -1  -1   8   22.68    9.50
   1   1  -8   15.81   11.89
  -1  -1   8    9.64   10.16
  -1  -1   7   63.47   18.76
   1   1  -7   79.27   10.71
  -1  -1   7   46.97    9.46
  -1  -1   7   57.00    6.39
  -1  -1   6  975.08   71.62
   1   1  -6  921.03   47.39
  -1  -1   6 1039.44   36.31
  -1  -1   6  986.43   45.19
  -1  -1   5  248.23   19.95
  -1  -1   5  287.84   17.40
  -1  -1   5  308.37   35.81
   1   1  -4  270.26   16.17
  -1  -1   4  294.89   17.64
  -1  -1   4  232.69   28.34
   1   1  -3  158.87   14.24
   1   1  -3  165.17   12.43
  -1  -1   3  166.50   13.06
  -1  -1   3  173.74   21.97
   1   1  -2 1052.81   37.36
   1   1  -2 1108.49   49.38
   1   1  -2 1052.14   37.48
  -1  -1   2 1035.31   37.97
   1   1   0 4227.47  105.02
   1   1   0 4182.18  106.71
  -1  -1   0 4074.69  106.69
   1   1   0 4457.49  141.41
  -1  -1  -1 2378.67   69.67
   1   1   1 2439.96   69.19
   1   1   1 2444.13   68.56
  -1  -1  -1 2350.41   68.29
   1   1   1 2705.22  108.13
   1   1   2 3091.02  126.90
  -1  -1  -2 2805.90   82.13
   1   1   2 2940.21   81.84
   1   1   2 2765.60   77.47
  -1  -1  -2 2802.34   78.54
  -1  -1  -2 2949.50   98.08
   1   1   3 2589.77  123.66
  -1  -1  -3 2212.73   73.61
   1   1   3 2304.55   72.19
  -1  -1  -3 2262.41   66.69
  -1  -1  -3 2413.04   94.91
   1   1   4  541.85   35.58
   1   1   4  748.79   68.86
  -1  -1  -4  662.32   35.92
   1   1   4  668.82   33.99
  -1  -1  -4  626.14   50.09
  -1  -1  -4  630.88   27.08
   1   1   5 2082.72  127.59
   1   1   5 1699.65   56.39
  -1  -1  -5 1613.89   67.07
   1   1   5 1650.99   62.65
   1   1   5 1738.82   68.08
  -1  -1  -5 1628.88   48.84
   1   1   6  182.80   39.91
  -1  -1  -6  257.57   39.55
   1   1   6  225.31   20.90
  -1  -1  -6  213.26   23.65
  -1  -1  -7  763.15   48.80
  -1  -1  -7  799.55   76.59
   1   1   7  740.06   41.86
   1   1   7  745.24   80.67
   1   1   8 1285.63   59.66
  -1  -1  -8 1433.39  112.71
  -1  -1  -8 1363.17   70.81
   1   1   8 1318.11   71.51
   1   1   8 1260.38  102.00
  -1  -1  -9  257.21   31.38
  -1  -1  -9  355.68   59.63
   1   1   9  280.35   33.41
   1   1   9  310.22   46.99
   1   1   9  292.26   26.71
   1   1  10  115.30   16.86
  -1  -1 -10   92.25   32.45
   1   1  10  138.72   29.85
   1   1  10  111.44   21.69
  -1  -1 -11  105.51   37.99
   1   1  11   82.37   21.60
  -1  -1 -12   42.79   30.75
   1   1  12   32.21   14.19
  -1  -2  15  309.70   51.27
  -1  -2  14  164.59   35.45
  -1  -2  13   -7.42   11.91
  -1  -2  12  291.74   41.89
  -1  -2  12  249.96   27.54
  -1  -2  11  548.51   54.92
  -1  -2  11  644.15   44.82
  -1  -2  10  336.73   40.23
  -1  -2  10  362.39   32.90
  -1  -2   9    6.43    8.81
  -1  -2   9   23.87    9.03
  -1  -2   9   27.50   10.60
  -1  -2   9   28.37    4.77
   1   2  -9   37.37    6.82
  -1  -2   8   -4.46    7.15
   1   2  -8    4.03    5.07
  -1  -2   8   -2.14    5.64
  -1  -2   8    4.52    5.05
  -1  -2   8    5.46    3.00
  -1  -2   7  177.36   21.39
  -1  -2   7  165.26   31.84
   1   2  -7  184.72   24.14
  -1  -2   7  198.59   16.52
  -1  -2   6  124.72   26.33
   1   2  -6   97.29   18.92
  -1  -2   6   72.60   13.07
  -1  -2   6   74.68   10.21
  -1  -2   5  186.65   30.41
  -1  -2   5  171.99   15.93
   1   2  -5  137.17   22.12
   1   2  -5  177.97    9.96
  -1  -2   5  152.10   16.53
   1   2  -4  387.50   37.39
  -1  -2   4  385.96   24.34
   1   2  -4  433.83   23.95
  -1  -2   4  426.69   34.38
  -1  -2   3  126.98   13.37
   1   2  -3  131.25   18.24
  -1  -2   3  133.72   22.62
  -1  -2   3  132.58   13.89
   1   2  -3  122.76   20.90
  -1  -2   2 1394.70   46.39
   1   2  -2 1656.61   81.57
  -1  -2   2 1642.41   85.67
   1   2  -1 1195.83   33.82
  -1  -2   1 1077.86   33.09
   1   2  -1 1329.17   80.48
   1   2  -1 1101.24   39.64
  -1  -2   1 1080.81   38.07
   1   2   0   39.69   15.82
   1   2   0   33.58   10.88
  -1  -2   0   51.33    8.66
   1   2   0   62.68    8.47
  -1  -2   0   65.83    8.89
   1   2   1   14.65   18.97
  -1  -2  -1  -10.57   12.22
  -1  -2  -1    1.59    3.24
   1   2   1    0.90    3.05
   1   2   1    2.93    9.29
  -1  -2  -1   -0.84    2.52
   1   2   2  673.65   68.50
  -1  -2  -2  449.12   51.09
   1   2   2  506.43   26.45
   1   2   2  396.87   38.48
  -1  -2  -2  446.15   26.26
   1   2   2  464.67   19.58
  -1  -2  -2  435.70   25.19
  -1  -2  -3 1692.48   58.75
   1   2   3 2015.39  125.70
   1   2   3 1785.72   60.72
   1   2   3 1725.93   82.88
  -1  -2  -3 1658.44   61.91
   1   2   3 1683.38   54.51
  -1  -2  -3 1886.84   86.69
   1   2   4 1541.16  114.69
   1   2   4 1580.36   57.91
   1   2   4 1436.69   71.62
  -1  -2  -4 1450.23   59.34
   1   2   4 1613.16   56.82
  -1  -2  -4 1535.83   54.65
  -1  -2  -5  356.34   43.64
   1   2   5  448.59   61.98
   1   2   5  405.79   27.12
   1   2   5  434.37   30.24
  -1  -2  -5  358.76   28.28
   1   2   5  373.01   27.40
  -1  -2  -5  382.22   22.66
   1   2   6 1752.68  124.52
   1   2   6 1649.57   63.33
  -1  -2  -6 1580.62  103.88
   1   2   6 1563.37   50.44
  -1  -2  -6 1561.57   69.13
   1   2   6 1568.85   67.85
  -1  -2  -6 1551.78   49.34
  -1  -2  -7  953.35   54.71
  -1  -2  -7  901.64   83.78
   1   2   7  910.67   46.05
   1   2   7 1042.77   93.41
   1   2   8  739.80   41.50
  -1  -2  -8  710.80   81.09
  -1  -2  -8  763.60   51.14
   1   2   8  707.22   50.20
   1   2   8  709.97   75.88
   1   2   9   93.97   14.26
  -1  -2  -9  159.09   41.88
   1   2   9  122.10   30.00
  -1  -2  -9  122.22   20.64
   1   2   9  132.73   22.60
  -1  -2 -10  229.06   54.32
   1   2  10  227.19   22.43
   1   2  10  205.38   37.36
   1   2  10  224.58   31.94
  -1  -2 -11  485.93   83.62
   1   2  11  531.14   53.37
  -1  -2 -12  364.74   74.85
  -1  -3  15  154.12   36.46
  -1  -3  14  147.90   33.11
  -1  -3  13  277.08   32.69
  -1  -3  13  359.63   49.09
  -1  -3  12  825.36   57.86
  -1  -3  12  850.82   72.71
  -1  -3  11  762.76   54.55
  -1  -3  11  733.85   63.64
   1   3 -11  619.41   25.70
  -1  -3  10  144.77   23.74
  -1  -3  10  111.42   23.16
   1   3 -10  148.76   17.50
  -1  -3  10  151.54   14.71
  -1  -3   9   25.58   14.69
   1   3  -9   33.51   10.28
  -1  -3   9   38.93   12.42
  -1  -3   9   37.00   12.70
  -1  -3   9   22.24    6.43
  -1  -3   8  775.94   40.26
   1   3  -8  690.29   51.95
  -1  -3   8  694.86   73.24
  -1  -3   8  733.23   50.50
  -1  -3   7 1423.12   98.59
   1   3  -7 1306.06   79.12
  -1  -3   7 1263.05   67.21
  -1  -3   7 1363.88   64.58
  -1  -3   7 1313.01   56.14
  -1  -3   6   46.91   13.84
   1   3  -6   46.68    6.91
  -1  -3   6   60.21   19.79
  -1  -3   6   33.20    8.50
   1   3  -6   24.07   12.48
  -1  -3   5   43.53   15.01
   1   3  -5   42.41    9.02
  -1  -3   5   47.17    9.87
   1   3  -5   52.18   18.70
   1   3  -4    5.97    6.15
  -1  -3   4   15.61   11.88
   1   3  -4   -2.98   10.28
  -1  -3   4    7.73    5.95
  -1  -3   4   18.09    7.04
  -1  -3   3  759.53   64.10
   1   3  -3  686.23   50.02
   1   3  -3  571.22   53.86
  -1  -3   3  638.47   32.49
  -1  -3   3  608.83   36.53
  -1  -3   2   34.49    6.35
   1   3  -2   31.36   18.62
   1   3  -2   34.57   15.86
  -1  -3   2   76.23   27.45
  -1  -3   1  134.57   11.06
   1   3  -1  168.93   29.11
  -1  -3   1  141.24   16.86
   1   3  -1  149.82   29.48
  -1  -3   1  126.69    8.37
   1   3   0  202.57   35.99
  -1  -3   0  220.47   18.00
   1   3   0  253.26   36.82
  -1  -3   0  228.40   21.26
   1   3   1   85.01    8.33
  -1  -3  -1   60.64   22.66
   1   3   1   95.88   28.93
  -1  -3  -1   93.63   12.11
   1   3   1  100.48   22.74
  -1  -3  -1   89.80   13.48
  -1  -3  -2 1735.67  120.52
   1   3   2 2076.70  131.03
  -1  -3  -2 2049.46   70.92
   1   3   2 2014.90   67.43
   1   3   2 1743.76   97.81
   1   3   2 2025.22   54.46
  -1  -3  -2 1975.69   71.94
   1   3   3   41.83   16.78
  -1  -3  -3   31.06   19.69
   1   3   3   53.07   24.74
  -1  -3  -3   20.98    6.38
   1   3   3   13.47    5.24
   1   3   3   27.03    5.61
  -1  -3  -3   22.40    6.93
   1   3   4   41.49   14.19
   1   3   4   76.98   28.76
  -1  -3  -4   35.83   14.47
   1   3   4   41.99    8.17
  -1  -3  -4   58.80   10.91
   1   3   4   56.25    9.23
  -1  -3  -4   42.96    8.77
  -1  -3  -5  506.96   31.24
   1   3   5  627.30   75.07
   1   3   5  589.36   33.33
   1   3   5  546.26   40.71
  -1  -3  -5  530.24   35.71
   1   3   5  484.68   31.58
  -1  -3  -5  486.81   54.28
  -1  -3  -5  534.41   25.30
  -1  -3  -6   75.65   11.05
  -1  -3  -6   82.21   10.37
   1   3   6   42.12   21.37
  -1  -3  -6   18.65   12.62
   1   3   6   74.85   11.76
  -1  -3  -6   74.65   14.29
   1   3   6  101.48   15.63
   1   3   6   70.56   11.76
   1   3   7 1606.89  119.88
   1   3   7 1843.62   68.00
   1   3   7 1476.54   47.55
  -1  -3  -7 1539.01  115.50
  -1  -3  -7 1732.54   77.69
  -1  -3  -7 1744.56   60.28
  -1  -3  -7 1572.72   50.75
   1   3   8  280.88   49.93
   1   3   8  222.73   21.43
  -1  -3  -8  184.87   41.29
  -1  -3  -8  317.41   32.06
   1   3   8  201.22   26.21
  -1  -3  -8  253.94   20.82
  -1  -3  -9  192.79   46.22
   1   3   9  211.88   40.07
   1   3   9  321.70   35.80
  -1  -3 -10  614.91   90.06
   1   3  10  805.76   61.97
  -1  -3 -11  419.26   77.47
  -1  -4  15   47.21   23.84
  -1  -4  14  142.94   32.92
  -1  -4  14  142.31   26.29
  -1  -4  13  470.86   57.59
  -1  -4  13  639.18   55.47
  -1  -4  12  985.31   69.11
  -1  -4  12  926.51   40.78
  -1  -4  12 1019.54   80.49
   1   4 -12  986.53   45.59
  -1  -4  11  395.34   42.96
   1   4 -11  437.38   35.88
  -1  -4  11  477.43   50.88
  -1  -4  11  440.90   30.63
  -1  -4  10  490.33   46.15
   1   4 -10  429.20   41.23
  -1  -4  10  527.27   50.56
  -1  -4  10  536.55   35.53
  -1  -4   9  872.37   48.28
  -1  -4   9  880.55   62.77
  -1  -4   9  900.11   89.70
   1   4  -9 1007.53   68.86
  -1  -4   9  980.13   65.58
  -1  -4   9  984.26   51.32
   1   4  -8 1196.08   81.24
  -1  -4   8 1121.38   95.19
  -1  -4   8 1263.35   76.18
  -1  -4   8 1215.92   59.36
  -1  -4   8 1116.46   69.79
   1   4  -7 1410.51   92.72
  -1  -4   7 1409.03   66.45
   1   4  -7 1568.49   55.87
  -1  -4   7 1536.58   91.80
   1   4  -6  418.71   50.03
  -1  -4   6  434.39   33.95
   1   4  -6  377.04   27.94
  -1  -4   6  511.33   52.63
   1   4  -5  142.93   30.03
  -1  -4   5  160.03   20.59
   1   4  -5  178.68   21.55
  -1  -4   5  189.73   35.86
  -1  -4   4 1663.39  108.84
   1   4  -4 1643.33   81.57
   1   4  -4 1587.77  101.08
   1   4  -3  189.90   29.03
  -1  -4   3  215.31   40.71
   1   4  -3  146.10   32.67
   1   4  -2  212.36   33.36
  -1  -4   2  327.75   54.42
   1   4  -2  211.05   14.55
   1   4  -2  269.66   43.98
   1   4  -1  658.14   63.23
  -1  -4   1  630.75   22.59
   1   4  -1  447.10   53.30
  -1  -4   1  616.54   25.72
   1   4   0   30.93   15.57
   1   4   0    6.85    6.11
  -1  -4   0   27.33    7.56
  -1  -4   0    4.67    5.49
   1   4   0   20.66   16.00
   1   4   1  131.82   34.60
  -1  -4  -1   64.37   26.61
   1   4   1   94.94   11.31
  -1  -4  -1   90.32   13.02
  -1  -4  -1   84.79   14.72
   1   4   1  102.60   27.93
   1   4   2  115.49   32.68
  -1  -4  -2  134.13   16.31
  -1  -4  -2  175.68   42.79
   1   4   2  184.76   33.79
  -1  -4  -2  179.82   20.89
  -1  -4  -3  176.31   42.30
   1   4   3  146.99   36.36
  -1  -4  -3  139.30   17.31
   1   4   3  167.84   13.52
   1   4   3  135.60   27.17
  -1  -4  -3  132.93   18.16
   1   4   4    3.27    7.66
  -1  -4  -4    2.25   16.02
   1   4   4   21.98   20.37
  -1  -4  -4    8.34    6.84
  -1  -4  -4   12.85    6.95
   1   4   4   18.53    5.90
  -1  -4  -4   14.76    6.79
   1   4   5  184.33   41.80
  -1  -4  -5  197.22   36.42
   1   4   5  270.62   31.55
  -1  -4  -5  200.80   22.73
   1   4   5  216.98   20.88
  -1  -4  -5  219.05   22.22
   1   4   6  149.14   36.72
   1   4   6  227.32   25.38
  -1  -4  -6  302.55   47.99
  -1  -4  -6  236.88   26.32
   1   4   6  188.73   21.71
  -1  -4  -6  200.65   20.81
   1   4   7   29.71   21.03
  -1  -4  -7   36.21   18.69
  -1  -4  -7   19.67    8.31
   1   4   7   25.77    6.92
  -1  -4  -7   15.99    5.52
  -1  -4  -8   74.54   27.95
   1   4   8   64.26   24.35
   1   4   8   91.44   18.35
  -1  -4  -9  294.18   59.15
   1   4   9  276.44   47.45
   1   4   9  308.48   35.69
  -1  -4 -10  180.66   49.81
  -1  -5  15   38.46   18.40
  -1  -5  14   85.74   25.27
  -1  -5  14   55.32   18.63
  -1  -5  13  251.71   42.47
  -1  -5  13  279.94   38.99
   1   5 -13  263.45   26.44
  -1  -5  12  675.66   61.30
  -1  -5  12  841.11   71.70
   1   5 -12  659.84   50.69
  -1  -5  12  771.25   46.51
   1   5 -11   75.05   18.43
  -1  -5  11   54.37   19.46
  -1  -5  11   43.64   15.74
  -1  -5  11   65.50   13.35
  -1  -5  10  380.64   40.45
  -1  -5  10  362.53   44.06
   1   5 -10  443.11   48.02
  -1  -5  10  394.48   44.56
  -1  -5  10  404.69   35.28
   1   5  -9 2993.76  143.80
  -1  -5   9 2620.49  163.97
  -1  -5   9 2995.72  127.71
  -1  -5   9 2766.03  129.37
   1   5  -8 1143.68   87.52
   1   5  -8 1280.38   54.62
  -1  -5   8 1256.31   93.17
  -1  -5   8 1265.67   73.57
   1   5  -7 1095.16   88.24
  -1  -5   7 1342.40   97.97
   1   5  -7 1273.72   60.24
  -1  -5   7 1320.64   71.96
   1   5  -6  921.47   81.29
   1   5  -6  972.53   56.18
  -1  -5   6  947.90   83.97
   1   5  -5  663.30   69.13
   1   5  -5  753.79   54.37
  -1  -5   5  879.39   83.37
   1   5  -4 2037.79  126.42
  -1  -5   4 2350.43  146.00
   1   5  -4 2160.63  107.26
   1   5  -3 3456.46   94.99
   1   5  -3 3577.25  153.48
  -1  -5   3 3918.37  202.56
   1   5  -2  464.90   58.51
   1   5  -2  461.27   54.68
   1   5  -1   18.00   15.70
  -1  -5   1   10.32    3.34
  -1  -5   1   13.41    3.18
   1   5  -1   11.50   13.47
   1   5  -1   14.07    6.67
  -1  -5   0  308.22   26.11
   1   5   0  315.23   48.70
   1   5   0  315.17   29.08
   1   5   0  286.61   45.03
  -1  -5  -1  439.54   32.28
   1   5   1  419.56   58.90
  -1  -5  -1  555.25   82.85
   1   5   1  468.61   57.65
   1   5   1  455.32   29.18
  -1  -5  -1  504.82   40.16
  -1  -5  -2   -5.17   19.11
   1   5   2   -6.13   15.51
  -1  -5  -2    3.06    3.79
   1   5   2   20.72   17.59
  -1  -5  -2   -2.36    3.70
   1   5   3   33.99   20.00
  -1  -5  -3   34.34   25.60
  -1  -5  -3    7.49    5.30
   1   5   3    2.24    6.80
  -1  -5  -3   14.17    6.13
  -1  -5  -4   12.44   14.70
   1   5   4    8.89   17.68
  -1  -5  -4    5.48    5.12
  -1  -5  -4    2.91    5.71
   1   5   4   -3.20    6.94
   1   5   5   11.81    5.89
   1   5   5   27.85   23.73
  -1  -5  -5   -7.69   12.79
  -1  -5  -5    3.87    5.30
   1   5   5    2.43    6.57
  -1  -5  -5    7.48    6.74
   1   5   6  244.42   48.93
  -1  -5  -6  134.84   34.26
  -1  -5  -6  181.03   23.38
   1   5   6  165.22   19.84
  -1  -5  -6  162.64   20.90
   1   5   6  132.15   21.74
  -1  -5  -7   36.26   20.77
   1   5   7   21.83   20.61
   1   5   7    1.92    5.37
   1   5   7   11.84    6.03
   1   5   8    4.46   18.35
  -1  -5  -8   -4.34   10.46
   1   5   9   79.53   25.12
  -1  -5  -9   35.57   23.11
  -1  -5 -10  122.34   42.99
  -1  -6  15   40.88   21.40
  -1  -6  15   26.19   15.54
  -1  -6  14  222.00   40.82
  -1  -6  14  143.42   30.38
  -1  -6  13  136.78   32.08
  -1  -6  13  120.33   28.42
   1   6 -13  155.16   26.43
  -1  -6  12   17.77   12.69
  -1  -6  12   18.87   11.83
   1   6 -12    5.45    9.98
  -1  -6  11  161.02   30.58
  -1  -6  11  108.77   27.51
  -1  -6  11  127.81   26.92
   1   6 -11  103.48   26.30
  -1  -6  11  140.73   22.90
   1   6 -10  353.61   48.30
  -1  -6  10  350.51   36.55
  -1  -6  10  282.96   41.06
  -1  -6  10  410.88   45.07
  -1  -6  10  432.43   56.96
   1   6  -9  608.31   65.65
  -1  -6   9  559.70   69.75
   1   6  -9  558.22   37.15
  -1  -6   9  556.73   50.83
  -1  -6   9  573.01   47.49
   1   6  -8  673.92   71.82
  -1  -6   8  686.51   77.55
   1   6  -8  681.57   44.47
  -1  -6   8  776.77   56.78
  -1  -6   8  710.06   53.51
   1   6  -7  683.50   73.69
   1   6  -7  790.52   52.25
  -1  -6   7  800.69   85.80
  -1  -6   7  812.51   57.79
   1   6  -6 1538.00   83.07
   1   6  -6 1563.80  113.70
   1   6  -5 3691.65  149.56
   1   6  -5 3423.41  178.61
   1   6  -4 2345.14  122.11
   1   6  -4 2550.67  151.77
   1   6  -3  779.19   29.46
   1   6  -3  806.48   71.93
   1   6  -3  914.88   87.02
   1   6  -2  930.66   81.27
   1   6  -2  757.21   80.42
   1   6  -1 1351.35  103.56
   1   6  -1 1408.62  109.83
  -1  -6   1 1502.69   43.99
   1   6  -1 1494.89   81.99
   1   6   0 1010.53   91.42
  -1  -6   0  976.88   43.65
   1   6   0  900.56   87.19
   1   6   0  961.49   57.81
  -1  -6   0 1092.69   55.70
  -1  -6  -1  488.36   85.41
  -1  -6  -1  469.24   36.26
   1   6   1  630.45   73.35
   1   6   1  511.38   63.63
   1   6   1  489.41   33.44
  -1  -6  -1  533.06   45.33
  -1  -6  -2  247.91   25.96
   1   6   2  250.02   46.22
  -1  -6  -2  384.73   74.05
  -1  -6  -2  287.86   33.04
   1   6   2  292.03   46.32
   1   6   3  151.06   40.38
  -1  -6  -3  154.81   21.06
  -1  -6  -3  116.22   41.17
   1   6   3   91.91   25.53
  -1  -6  -3  147.80   23.20
   1   6   4    2.13   11.87
  -1  -6  -4    4.87   17.43
  -1  -6  -4   31.01   10.31
   1   6   4   39.94   16.24
  -1  -6  -4    3.45    7.04
  -1  -6  -5  230.99   26.52
  -1  -6  -5  281.49   50.16
   1   6   5  264.93   37.29
  -1  -6  -5  217.21   27.09
   1   6   5  189.36   51.74
   1   6   6    3.80   12.96
  -1  -6  -6   27.99   16.91
  -1  -6  -6   24.74   10.27
   1   6   6   14.66   10.57
  -1  -6  -6   26.45   11.02
  -1  -6  -7   23.28   13.74
   1   6   7    5.51   16.38
  -1  -6  -8    2.47   10.32
   1   6   8   37.11   22.47
  -1  -6  -9   15.84   13.11
  -1  -7  15  123.34   30.69
  -1  -7  14   13.73   12.60
  -1  -7  14  -10.28    9.51
   1   7 -13   11.25   11.45
  -1  -7  13   17.18   14.12
  -1  -7  13   -2.17   12.59
   1   7 -12   70.82   22.24
  -1  -7  12   60.64   21.89
  -1  -7  12  107.11   26.49
  -1  -7  12   95.74   20.09
   1   7 -11   24.12   17.67
  -1  -7  11   17.63   15.57
  -1  -7  11   28.36   14.31
  -1  -7  11   64.96   22.91
  -1  -7  11   42.50   13.74
  -1  -7  10  568.04   74.89
  -1  -7  10  368.65   49.49
  -1  -7  10  448.95   48.12
  -1  -7  10  447.19   45.71
   1   7 -10  431.99   58.09
   1   7  -9  349.12   33.12
  -1  -7   9  384.99   42.67
   1   7  -9  304.90   50.41
  -1  -7   9  303.78   37.71
   1   7  -8  141.36   22.60
  -1  -7   8  172.36   27.24
  -1  -7   8  115.48   23.63
   1   7  -8  162.58   37.70
   1   7  -7    8.74   15.53
   1   7  -7    0.64    5.20
  -1  -7   6 1209.15  120.54
   1   7  -6 1273.62   82.55
   1   7  -6 1277.79  108.17
  -1  -7   5 1196.76  124.22
   1   7  -5 1290.60   88.79
   1   7  -5 1248.17  107.67
  -1  -7   5 1108.25  110.45
  -1  -7   4 1121.92  122.86
   1   7  -4 1085.09   40.54
   1   7  -4  948.53   80.15
   1   7  -4 1042.49   99.35
  -1  -7   3  558.42   92.45
   1   7  -3  481.06   67.79
   1   7  -3  476.55   58.19
   1   7  -2 1644.77  125.93
   1   7  -2 1545.56  112.44
   1   7  -2 1766.46  101.04
  -1  -7   1 2253.45   93.52
   1   7  -1 2260.96  141.78
  -1  -7   1 2508.68  205.26
   1   7  -1 2397.49  153.03
  -1  -7   1 2255.72   59.65
   1   7  -1 2283.37  109.09
  -1  -7   0 2130.99   69.26
   1   7   0 2083.76  141.67
  -1  -7   0 2618.40  211.73
   1   7   0 2436.16  152.82
  -1  -7   0 2113.28   89.94
  -1  -7   0 2234.47  109.13
   1   7   0 2084.04   94.71
   1   7   1  892.98   92.31
  -1  -7  -1 1032.38  132.62
  -1  -7  -1  909.81   54.89
   1   7   1  880.46   87.67
  -1  -7  -1  991.58   67.55
   1   7   1  895.94   49.99
   1   7   2    7.56   11.28
  -1  -7  -2   14.04    7.59
  -1  -7  -2   20.53    9.85
   1   7   2   13.52   16.95
  -1  -7  -3  883.80   54.96
   1   7   3  837.03   80.02
   1   7   3  772.42   88.66
  -1  -7  -3  766.59   58.65
   1   7   4  761.27   72.90
  -1  -7  -4  959.30   57.89
   1   7   4  810.98   92.76
  -1  -7  -4  796.29   59.98
   1   7   5  143.43   38.90
  -1  -7  -5  143.05   38.68
  -1  -7  -5  134.82   21.54
  -1  -7  -5  131.18   23.22
   1   7   5  146.14   30.71
   1   7   6    0.52   12.90
   1   7   6   24.87   11.44
  -1  -7  -6   -7.19    9.12
   1   7   7   21.52   17.11
  -1  -7  -7   33.20   19.95
   1   7   8  249.91   50.45
  -1  -7  -8  181.40   49.15
  -1  -8  15  136.59   34.73
   1   8 -14   21.12   14.65
  -1  -8  14    5.32   11.96
  -1  -8  14  -26.49   15.45
   1   8 -13   -3.04    7.47
  -1  -8  13   10.97   12.27
  -1  -8  13   -2.58   12.06
  -1  -8  12   14.75   11.05
   1   8 -12   10.83   12.35
  -1  -8  12   27.04   17.39
  -1  -8  12   -4.41    9.01
  -1  -8  11  267.09   37.47
  -1  -8  11  312.66   42.58
  -1  -8  11  329.30   50.91
   1   8 -11  331.68   53.17
   1   8 -10   -0.17    3.84
  -1  -8  10  -12.26    8.66
  -1  -8  10    1.52    5.85
   1   8 -10   -7.58   11.15
  -1  -8  10    1.11   15.58
   1   8  -9  285.90   33.65
  -1  -8   9  413.24   73.57
  -1  -8   9  313.45   38.38
   1   8  -9  261.16   50.71
  -1  -8   9  373.65   44.40
   1   8  -8   11.60   16.58
   1   8  -8   18.99   12.02
  -1  -8   8   33.16   23.03
  -1  -8   8   15.92    9.27
  -1  -8   7  249.98   57.78
   1   8  -7  208.03   32.80
   1   8  -7  181.39   43.14
   1   8  -6  535.43   55.88
  -1  -8   6  443.27   80.84
   1   8  -6  467.23   68.19
   1   8  -5   41.27    7.92
  -1  -8   5   50.28   35.98
   1   8  -5   48.37   19.86
   1   8  -5   40.79   21.67
   1   8  -4  306.04   47.53
  -1  -8   4  225.20   63.66
  -1  -8   4  314.81   62.35
   1   8  -4  270.11   51.92
   1   8  -3  591.35   77.26
   1   8  -3  395.58   55.27
  -1  -8   3  515.37   98.09
   1   8  -3  437.47   54.79
   1   8  -2  594.16   71.68
   1   8  -2  644.63   80.89
  -1  -8   2  608.34  106.51
  -1  -8   2  605.29   29.67
   1   8  -2  597.70   58.48
   1   8  -1 1907.86  140.75
   1   8  -1 1702.33  127.39
  -1  -8   1 1808.81   86.54
   1   8  -1 1751.01   97.58
   1   8   0  159.57   39.14
  -1  -8   0  175.29   24.78
   1   8   0  272.40   51.67
  -1  -8   0  181.26   30.65
   1   8   0  194.35   27.19
   1   8   1  385.49   61.95
  -1  -8  -1  445.32   39.79
  -1  -8  -1  486.16   50.21
   1   8   1  456.61   65.30
   1   8   1  479.26   37.00
  -1  -8  -2 1877.76   90.17
   1   8   2 1811.85  141.18
  -1  -8  -2 2002.17  106.86
   1   8   2 1913.93  135.89
   1   8   3  436.04   60.34
  -1  -8  -3  490.76   42.77
   1   8   3  492.20   72.76
  -1  -8  -3  542.58   51.97
   1   8   4  477.17   73.62
   1   8   4  495.13   60.96
  -1  -8  -4  498.09   43.70
  -1  -8  -5  324.58   62.00
   1   8   5  276.89   42.86
   1   8   5  208.60   48.87
   1   8   6  116.65   36.11
  -1  -8  -6  175.47   47.17
   1   8   7  226.22   49.96
  -1  -9  16  364.31   60.38
  -1  -9  15   90.17   32.01
  -1  -9  14  166.75   35.95
  -1  -9  14  130.94   35.56
   1   9 -14  119.66   32.92
  -1  -9  13    3.40    8.94
  -1  -9  13   15.12   16.33
   1   9 -13   -5.43   10.18
  -1  -9  12  246.14   46.94
  -1  -9  12  296.06   43.57
   1   9 -12  324.67   54.56
   1   9 -11   58.21   15.63
  -1  -9  11   47.97   23.67
  -1  -9  11   54.89   18.06
   1   9 -11   54.12   25.96
  -1  -9  11   -6.91   14.33
   1   9 -10   20.38    8.11
  -1  -9  10   12.14    9.40
   1   9 -10   53.82   27.93
  -1  -9  10   63.55   37.25
  -1  -9   9   35.57   14.69
   1   9  -9   53.85   23.68
   1   9  -9    5.51    8.53
  -1  -9   9   79.01   40.46
  -1  -9   8   21.88   12.24
   1   9  -8   26.85   20.24
  -1  -9   8   12.99   21.83
   1   9  -8   12.83   11.66
   1   9  -7  117.25   37.63
   1   9  -7  146.19   29.80
   1   9  -6   32.80   22.48
   1   9  -6   28.08    7.11
  -1  -9   6    8.41   22.30
   1   9  -6    9.59   12.97
   1   9  -5   67.76   23.99
   1   9  -5   45.94   24.45
   1   9  -5   82.65   24.52
   1   9  -4   61.36   24.33
   1   9  -4    8.22   16.08
   1   9  -4   38.36   20.50
   1   9  -3  436.56   70.94
   1   9  -3  453.97   62.13
  -1  -9   3  517.13   32.15
   1   9  -3  450.21   56.73
  -1  -9   2  352.84   37.79
   1   9  -2  310.71   52.92
   1   9  -2  374.83   48.37
  -1  -9   2  349.21   20.53
   1   9  -2  390.06   66.10
  -1  -9   1  110.65   21.20
   1   9  -1  148.09   38.71
   1   9  -1   88.10   21.76
  -1  -9   0  159.09   25.17
   1   9   0  122.35   35.52
   1   9   0  144.07   38.14
   1   9   0  164.29   25.75
   1   9   1  240.11   50.24
  -1  -9  -1  249.39   32.40
  -1  -9  -1  256.52   19.64
   1   9   1  278.78   52.95
   1   9   1  286.04   29.05
  -1  -9  -2  904.65   62.48
   1   9   2  883.55  100.49
   1   9   2  832.18   90.26
   1   9   3  701.43   90.75
   1   9   3  664.64   77.32
   1   9   4  242.88   43.42
   1   9   4  233.82   52.57
   1   9   5   97.02   34.10
  -1  -9  -5  276.29   60.57
   1   9   6  298.39   59.92
   1   9   7  652.69   87.18
  -1 -10  15  171.88   43.95
   1  10 -14  152.65   36.99
  -1 -10  14  261.77   44.71
  -1 -10  14  175.50   43.82
   1  10 -13  230.57   47.79
  -1 -10  13  188.45   44.69
  -1 -10  13  277.29   44.05
   1  10 -12  385.54   63.13
  -1 -10  12  435.77   53.41
  -1 -10  12  351.29   58.70
   1  10 -11  146.09   26.10
   1  10 -11  191.09   46.38
  -1 -10  11  113.74   26.24
  -1 -10  11  102.97   32.07
   1  10 -10   91.80   21.52
  -1 -10  10  115.68   24.86
   1  10 -10   67.48   29.57
  -1 -10   9  100.11   22.78
   1  10  -9   97.49   37.41
   1  10  -9   94.05   23.34
  -1 -10   8  106.20   22.33
   1  10  -8  154.66   42.85
   1  10  -8  132.28   29.72
   1  10  -7  111.24   14.61
  -1 -10   7  108.13   21.04
   1  10  -7   90.31   35.26
   1  10  -7  108.22   27.88
  -1 -10   6   35.48   11.68
   1  10  -6   73.90   31.35
   1  10  -6   50.06   22.58
   1  10  -5   28.45   21.36
  -1 -10   5    1.91    6.10
   1  10  -5   -0.46   18.46
   1  10  -5   21.30   15.86
   1  10  -4  184.97   39.04
  -1 -10   4  252.15   24.63
   1  10  -4  215.68   50.44
   1  10  -4  234.73   45.20
   1  10  -3   45.45   20.85
  -1 -10   3   27.40    7.45
   1  10  -3   -5.62   15.21
   1  10  -3   26.39   17.82
   1  10  -2   14.44    7.36
  -1 -10   2   43.10    6.04
   1  10  -2   65.41   28.00
   1  10  -2   35.48   19.98
   1  10  -1   16.99    9.78
   1  10  -1   29.52   21.80
   1  10   0  134.50   39.19
   1  10   0  127.64   37.99
   1  10   1  238.78   50.39
   1  10   1  220.16   49.41
   1  10   2  114.73   36.71
   1  10   2  163.67   44.55
   1  10   3  114.33   34.83
   1  10   3  175.69   45.88
   1  10   4   48.62   23.21
   1  10   4   26.86   20.42
   1  10   5  274.82   56.94
  -1 -11  14  115.87   38.04
   1  11 -14  163.71   41.64
  -1 -11  13  501.06   60.27
  -1 -11  13  494.20   75.91
   1  11 -13  464.11   71.99
  -1 -11  12  493.28   73.50
  -1 -11  12  558.51   61.35
   1  11 -12  498.90   51.19
   1  11 -12  631.49   85.09
   1  11 -11  176.06   30.43
  -1 -11  11  167.78   31.97
   1  11 -10  121.82   27.52
  -1 -11  10  112.39   25.75
   1  11 -10  104.90   36.70
   1  11  -9  780.96   99.85
  -1 -11   9  822.57   65.79
   1  11  -9  674.50   68.08
  -1 -11   8  202.77   30.26
   1  11  -8  277.98   59.73
   1  11  -8  177.65   36.86
  -1 -11   7  143.85   24.04
   1  11  -7  191.55   51.38
   1  11  -7  195.98   38.79
  -1 -11   6   26.66    9.92
   1  11  -6   51.27   24.97
   1  11  -6   68.97   27.77
  -1 -11   5   53.32   13.51
   1  11  -5   19.65   16.45
   1  11  -5   39.15   21.61
  -1 -11   4  188.20   20.94
   1  11  -4  241.79   56.59
   1  11  -4  160.92   39.78
   1  11  -3   85.05   24.30
  -1 -11   3  148.84   14.78
   1  11  -3  133.57   42.05
   1  11  -3  132.16   36.98
   1  11  -2  -12.10   10.23
   1  11  -2    2.25   14.76
   1  11  -2    3.50   12.56
   1  11  -1    0.74   12.04
   1  11  -1  -14.86   19.16
   1  11   0   10.83   12.04
   1  11   0   87.66   32.35
   1  11   1   61.30   31.01
   1  11   1   23.81   11.69
   1  11   2   79.71   30.13
   1  11   2   87.71   34.50
   1  11   3  -17.73   14.85
   1  11   3   -9.50   14.73
   1  12 -14  160.39   45.76
   1  12 -13  160.69   47.16
  -1 -12  13  440.58   56.96
   1  12 -12  242.13   37.63
   1  12 -12  294.08   62.05
  -1 -12  12  249.11   52.74
  -1 -12  12  255.27   41.97
   1  12 -11   95.77   24.90
  -1 -12  11   23.98   13.07
   1  12 -11   64.18   30.49
  -1 -12  10  334.92   43.71
   1  12 -10  298.41   64.23
   1  12 -10  286.79   44.39
   1  12  -9  479.57   59.99
   1  12  -9  509.34   82.38
  -1 -12   9  547.00   53.53
   1  12  -8  602.32   70.35
  -1 -12   8  475.66   47.19
   1  12  -8  414.81   76.22
  -1 -12   7  146.81   24.78
   1  12  -7  151.50   46.24
   1  12  -7  139.25   34.21
  -1 -12   6  151.49   22.91
   1  12  -6  230.28   57.31
   1  12  -6  206.41   44.06
   1  12  -5  603.60   76.86
  -1 -12   5  508.87   38.58
   1  12  -5  496.51   83.00
   1  12  -4   90.23   35.25
   1  12  -4   43.83   25.22
   1  12  -3  136.28   44.77
   1  12  -3  206.58   47.01
   1  12  -2    1.60   11.49
   1  12  -2   -9.59   13.72
   1  12  -1   23.58   19.16
   1  12  -1   15.45    9.71
   1  12   0  277.94   60.31
   1  12   0  276.12   59.30
   1  12   1   49.75   28.11
   1  12   2  -39.48   22.60
   1  13 -13    8.42   14.18
  -1 -13  13   52.51   22.22
   1  13 -12   28.17   14.36
   1  13 -12    9.02   14.87
  -1 -13  12   25.07   16.65
   1  13 -11  192.88   36.70
   1  13 -11  201.33   53.70
  -1 -13  11  264.61   41.48
   1  13 -10  417.96   57.39
  -1 -13  10  379.17   47.31
   1  13 -10  483.42   82.28
  -1 -13   9  109.75   24.28
   1  13  -9   91.22   38.20
   1  13  -9  167.29   38.25
  -1 -13   8   91.08   21.02
   1  13  -8   99.59   37.97
   1  13  -8  100.92   30.59
  -1 -13   7   37.73   12.73
   1  13  -7   30.53   24.60
   1  13  -7   76.22   27.92
   1  13  -6  556.06   74.27
   1  13  -6  656.21   97.15
   1  13  -5  268.10   61.17
   1  13  -5  226.60   49.94
   1  13  -4   70.41   35.81
   1  13  -4  160.90   42.63
   1  13  -3   13.57   20.28
   1  13  -3   58.06   25.91
   1  13  -2  187.41   51.34
   1  13  -1  363.63   71.59
   1  13   0   60.41   34.26
  -1 -14  12   22.24   13.38
   1  14 -12   39.19   17.22
  -1 -14  11   73.05   21.99
   1  14 -11   93.13   26.89
  -1 -14  10   78.05   21.44
   1  14 -10   66.47   24.87
   1  14  -9   51.03   23.13
   1  14  -8   19.49   13.20
   1  14  -7  137.19   37.57
   2 -15   3  206.48   51.23
   2 -14   1  398.80   70.71
   2 -14   2   78.16   32.72
   2 -14   3   32.29   19.13
   2 -14   4  142.30   41.46
  -2  14  -5  275.62   49.14
  -2  14  -5  336.21   65.29
   2 -14   5  252.75   52.46
  -2  14  -6   47.44   20.78
  -2  14  -6   78.19   33.04
   2 -14   6   91.48   29.95
  -2  14  -7  134.93   41.68
   2 -14   7  100.25   35.23
  -2  14  -8  200.91   41.48
  -2  13   2   39.95   21.54
  -2  13   1    0.11   33.22
   2 -13   0  283.06   58.50
  -2  13   0  183.77   46.39
  -2  13   0  218.02   46.77
  -2  13  -1   79.42   26.16
  -2  13  -1  -12.28   19.33
   2 -13   1   45.76   24.85
  -2  13  -2   30.63   19.74
  -2  13  -2   24.31   19.36
   2 -13   2    5.22   11.37
  -2  13  -3  221.67   43.76
  -2  13  -3  202.83   49.67
   2 -13   3  197.16   47.71
  -2  13  -4  473.83   63.92
  -2  13  -4  421.90   71.27
   2 -13   4  328.42   57.95
  -2  13  -5   87.14   28.72
  -2  13  -5   87.05   34.29
   2 -13   5   95.18   32.64
  -2  13  -6   15.09   15.91
  -2  13  -6   67.18   29.16
   2 -13   6   25.85   19.82
  -2  13  -7   82.56   26.46
  -2  13  -7   63.14   27.30
   2 -13   7   68.94   26.21
  -2  13  -8   47.70   20.38
   2 -13   8   53.66   25.19
  -2  13  -8   29.14   25.51
   2 -13   9  236.75   50.78
  -2  13  -9  220.89   51.11
   2 -13  10   18.28   16.59
  -2  13 -10   28.93   19.39
  -2  13 -11   67.03   27.60
  -2  13 -12  205.48   48.07
  -2  13 -13   54.99   25.23
  -2  12   3   25.98   17.66
  -2  12   3  -21.09   16.07
  -2  12   2  124.30   35.82
  -2  12   2  215.07   45.29
   2 -12  -1  382.71   62.51
  -2  12   1  225.97   48.87
  -2  12   1  274.02   51.25
   2 -12   0  277.20   54.55
  -2  12   0  271.70   52.43
  -2  12   0  226.29   45.45
   2 -12   1  112.28   35.34
  -2  12  -1   80.74   27.91
  -2  12  -1   68.81   25.32
   2 -12   2  284.06   52.42
  -2  12  -2  183.03   44.35
  -2  12  -2  267.43   47.50
  -2  12  -3  336.33   51.89
  -2  12  -3  288.48   56.57
   2 -12   3  323.66   55.48
  -2  12  -4   91.50   28.11
  -2  12  -4  138.01   40.40
   2 -12   4   82.71   28.75
  -2  12  -5   20.99   15.10
  -2  12  -5   37.17   22.36
   2 -12   5   33.64   21.15
  -2  12  -6   88.15   26.07
  -2  12  -6  128.39   36.80
   2 -12   6   94.82   32.42
  -2  12  -7  267.83   43.28
  -2  12  -7  215.32   48.55
   2 -12   7  333.31   56.61
  -2  12  -8  283.98   44.35
  -2  12  -8  248.40   50.68
   2 -12   8  207.85   46.88
  -2  12  -9   15.81   13.15
   2 -12   9   13.47   17.82
  -2  12 -10   35.88   21.66
   2 -12  10   28.40   21.94
  -2  12 -11   93.57   30.93
   2 -12  11   95.83   32.77
  -2  12 -12  130.50   36.32
  -2  12 -13  -17.92   14.82
  -2  11   5   50.03   22.39
  -2  11   4   25.39   20.83
  -2  11   4   15.44   11.65
  -2  11   3   87.66   27.59
  -2  11   3   91.47   29.01
   2 -11  -2  804.09   83.53
  -2  11   2  590.85   73.22
  -2  11   2  624.39   73.44
  -2  11   1  145.53   35.46
  -2  11   1  127.72   34.85
   2 -11  -1  156.96   39.88
  -2  11   0  105.79   30.01
  -2  11   0  125.09   34.55
   2 -11   0  146.96   39.54
  -2  11  -1  128.06   32.30
  -2  11  -1  101.41   32.21
   2 -11   1  108.38   32.42
  -2  11  -2  253.48   43.05
   2 -11   2  253.50   46.12
  -2  11  -2  244.77   48.68
   2 -11   3  979.51   90.94
  -2  11  -3  975.65   85.56
  -2  11  -3  981.38   98.95
  -2  11  -4  249.96   41.16
  -2  11  -4  231.51   47.39
   2 -11   4  248.27   45.11
  -2  11  -5  189.29   36.68
  -2  11  -5  202.13   45.44
   2 -11   5  159.23   37.07
  -2  11  -6  383.52   48.45
  -2  11  -6  295.94   26.85
   2 -11   6  281.33   49.16
  -2  11  -6  284.10   52.44
   2 -11   7  599.99   72.77
  -2  11  -7  678.03   51.06
  -2  11  -7  701.59   66.98
  -2  11  -7  676.24   81.23
  -2  11  -8   58.38   24.61
   2 -11   8   52.26   24.74
  -2  11  -9   23.36   13.11
   2 -11   9   74.58   27.61
  -2  11 -10  148.99   36.13
   2 -11  10  155.14   40.23
  -2  11 -11  139.53   35.10
   2 -11  11  149.84   38.92
  -2  11 -12   47.26   21.33
   2 -11  12   97.25   32.54
  -2  11 -13   29.02   18.63
   2 -11  13   24.30   15.96
  -2  10   6   24.47   17.86
  -2  10   5    9.60   14.78
  -2  10   5   27.41   15.08
   2 -10  -5    0.46   20.03
  -2  10   4   95.68   28.53
  -2  10   4  111.82   29.74
  -2  10   3   75.29   25.56
   2 -10  -3   97.30   26.13
  -2  10   3   67.50   25.21
   2 -10  -2  150.20   22.21
   2 -10  -2  266.73   44.33
  -2  10   2  176.16   37.51
  -2  10   2  177.61   39.25
  -2  10   1   -0.36   10.37
   2 -10  -1   11.48    7.32
   2 -10  -1    5.43   13.88
  -2  10   1   12.07   12.73
  -2  10   1  -11.37    9.03
  -2  10   0  107.13   29.35
   2 -10   0   87.17   18.94
  -2  10   0   46.70   19.82
   2 -10   0   96.88   27.56
  -2  10   0  108.37   31.08
  -2  10  -1  422.19   54.39
   2 -10   1  453.13   56.98
  -2  10  -1  372.69   56.35
  -2  10  -1  377.73   52.43
   2 -10   2  601.78   66.33
  -2  10  -2  698.88   68.04
  -2  10  -2  669.96   76.11
  -2  10  -3   98.73   25.28
  -2  10  -3  114.92   33.41
   2 -10   3   91.45   26.90
  -2  10  -4  253.44   39.78
   2 -10   4  271.61   45.52
  -2  10  -4  287.82   49.69
   2 -10   5  749.07   75.17
  -2  10  -5  763.23   81.66
  -2  10  -5  763.31   67.51
  -2  10  -5  661.06   40.94
   2 -10   6  713.28   75.77
  -2  10  -6  612.30   73.22
  -2  10  -6  647.59   48.09
  -2  10  -6  720.07   64.04
   2 -10   7  516.65   64.59
  -2  10  -7  575.86   56.63
  -2  10  -7  531.52   67.95
  -2  10  -8   83.96   29.99
   2 -10   8   65.94   24.87
   2 -10   9  417.49   59.18
  -2  10  -9  542.49   67.26
   2 -10  10  544.36   69.70
  -2  10 -10  477.46   62.36
  -2  10 -11   74.34   25.76
   2 -10  11   87.43   31.21
  -2  10 -12  109.36   29.05
   2 -10  12   44.31   21.26
  -2  10 -13  103.86   28.94
   2 -10  13   86.57   30.24
   2 -10  14   85.39   32.59
  -2   9   7  191.97   39.19
  -2   9   6    9.67    9.30
   2  -9  -6   22.51   19.28
  -2   9   6   19.87   15.82
   2  -9  -5   18.94   14.87
  -2   9   5    7.24   11.99
  -2   9   5   12.78    9.51
   2  -9  -5    1.96    9.90
  -2   9   4   10.28    9.56
   2  -9  -4   -8.18   14.62
   2  -9  -4   25.68   13.82
  -2   9   4    6.16    5.46
  -2   9   3  263.53   42.87
   2  -9  -3  265.96   26.71
  -2   9   3  348.59   50.13
   2  -9  -3  274.08   30.10
   2  -9  -3  356.13   46.09
   2  -9  -3  273.99   27.30
   2  -9  -3  225.42   44.41
  -2   9   2   16.00   12.88
   2  -9  -2    2.87    3.16
   2  -9  -2   -3.99    8.42
   2  -9  -2    4.98    5.28
   2  -9  -2    0.34    9.79
  -2   9   2   -8.30    7.41
  -2   9   2   16.47   13.61
  -2   9   1   85.60   25.81
   2  -9  -1   71.70   11.68
   2  -9  -1   53.50   15.08
   2  -9  -1   50.20   18.13
  -2   9   1   53.53   17.41
  -2   9   1   43.17   16.67
  -2   9   0   -0.31   11.21
  -2   9   0   33.37   16.45
  -2   9   0   32.56   14.68
   2  -9   1  348.79   47.21
  -2   9  -1  431.26   58.21
  -2   9  -1  361.46   49.81
  -2   9  -1  324.30   44.73
   2  -9   2  506.53   57.76
  -2   9  -2  546.02   56.57
  -2   9  -2  495.29   60.27
  -2   9  -2  497.67   62.04
  -2   9  -3   16.93   14.98
  -2   9  -3   17.03   12.50
   2  -9   3    8.08   11.00
  -2   9  -3    3.39   11.58
  -2   9  -4  459.69   31.70
  -2   9  -4  359.06   44.27
   2  -9   4  324.62   47.08
  -2   9  -4  434.54   61.44
  -2   9  -4  487.25   60.87
  -2   9  -5  250.90   35.57
  -2   9  -5  196.53   24.65
   2  -9   5  211.18   37.97
  -2   9  -5  148.50   33.85
   2  -9   6  574.94   62.85
   2  -9   6  569.92   72.47
  -2   9  -6  631.48   56.37
  -2   9  -6  670.79   71.89
   2  -9   7  429.43   56.37
   2  -9   7  480.08   65.93
  -2   9  -7  452.21   58.88
   2  -9   8  383.85   54.34
  -2   9  -8  433.34   56.43
   2  -9   8  466.71   64.08
   2  -9   9  207.30   42.82
   2  -9   9  271.57   45.76
  -2   9  -9  239.36   41.56
   2  -9  10 1180.97   99.10
  -2   9 -10 1363.72  100.37
   2  -9  10 1369.81  111.06
   2  -9  11  468.93   62.05
  -2   9 -11  596.71   64.25
   2  -9  12  107.43   31.13
  -2   9 -12   97.02   26.32
  -2   9 -13  204.40   35.55
   2  -9  13  186.56   41.72
   2  -9  14  100.53   32.04
  -2   8   8  278.79   44.01
   2  -8  -7  196.63   54.83
  -2   8   7   84.83   24.96
  -2   8   6   34.00   15.52
   2  -8  -6   22.82   21.38
  -2   8   6    6.79    8.94
   2  -8  -6   39.94   17.29
   2  -8  -5  146.77   32.63
  -2   8   5   97.65   25.02
   2  -8  -5  106.74   36.50
   2  -8  -5  133.48   20.05
   2  -8  -5  109.39   17.19
   2  -8  -5   71.50   30.15
  -2   8   5   88.85   21.92
   2  -8  -4  622.20   86.83
  -2   8   4  722.30   69.21
   2  -8  -4  628.55   37.85
  -2   8   4  546.00   57.57
   2  -8  -4  735.51   56.60
   2  -8  -4  565.83   40.06
   2  -8  -4  573.16   65.14
   2  -8  -3  244.93   42.08
   2  -8  -3  264.37   35.50
   2  -8  -3  174.35   21.86
  -2   8   3  199.26   34.24
   2  -8  -3  210.17   51.62
  -2   8   3  169.65   32.54
   2  -8  -3  204.55   21.60
   2  -8  -2   44.10   27.98
  -2   8   2   46.44   17.47
   2  -8  -2   40.59   11.78
   2  -8  -2   41.80   15.35
   2  -8  -2   46.49   12.42
   2  -8  -2   38.35   16.87
  -2   8   2   61.35   17.52
  -2   8   2   42.38   14.91
   2  -8  -1   98.59   15.99
   2  -8  -1   65.94   15.85
  -2   8   1   85.08   20.91
   2  -8  -1   82.36   25.81
  -2   8   1   87.75   22.85
   2  -8  -1   85.56   32.79
  -2   8   1  105.61   25.36
   2  -8  -1   90.83   32.49
  -2   8   0   59.62   18.42
   2  -8   0   71.60   26.16
  -2   8   0   52.42   18.85
   2  -8   0   78.11   30.44
  -2   8   0  101.22   24.55
   2  -8   0   89.86   33.68
  -2   8  -1  130.50   28.73
   2  -8   1  108.91   24.12
  -2   8  -1  112.49   27.77
   2  -8   1  107.19   33.15
   2  -8   1   98.17   35.00
  -2   8  -1   94.74   24.07
  -2   8  -2  101.01   27.60
   2  -8   2   88.20   22.07
   2  -8   2   73.67   29.72
  -2   8  -2   66.67   22.73
   2  -8   2   38.14   22.65
  -2   8  -2   38.39   15.61
  -2   8  -3    1.95   10.12
   2  -8   3  -10.46   13.84
  -2   8  -3   15.43   11.18
  -2   8  -3   10.27    5.64
   2  -8   3   14.14    9.04
  -2   8  -3   33.96   18.65
   2  -8   3   15.04   12.84
  -2   8  -4   51.23   19.32
   2  -8   4   60.94   29.73
  -2   8  -4   70.11   18.65
  -2   8  -4   91.69   16.06
   2  -8   4   70.96   20.05
  -2   8  -4   79.02   26.45
   2  -8   4   88.11   27.83
  -2   8  -5  257.53   42.45
   2  -8   5  162.25   41.86
  -2   8  -5  244.98   32.87
   2  -8   5  200.15   39.29
   2  -8   5  207.16   36.55
  -2   8  -5  221.96   44.20
   2  -8   6  624.51   67.75
  -2   8  -6  603.96   63.43
   2  -8   6  497.48   57.01
  -2   8  -6  541.44   72.28
   2  -8   6  514.84   74.55
   2  -8   7   11.36   11.67
   2  -8   7   22.27   13.49
  -2   8  -7   11.54   12.38
   2  -8   7   22.45   23.58
  -2   8  -8  491.63   55.77
   2  -8   8  480.99   58.33
   2  -8   8  455.01   72.92
   2  -8   8  436.23   54.76
   2  -8   9 1086.45   88.52
   2  -8   9 1142.56  117.24
  -2   8  -9 1065.23   83.94
   2  -8   9 1225.65   94.04
   2  -8  10    1.58   11.83
   2  -8  10   27.48   16.68
   2  -8  10  -12.59    9.14
  -2   8 -10   17.21   13.61
  -2   8 -11  344.84   45.18
   2  -8  11  300.69   48.27
   2  -8  11  276.49   60.01
  -2   8 -12  515.82   53.59
   2  -8  12  485.69   62.13
   2  -8  13  398.26   57.01
   2  -8  14  400.02   57.84
   2  -8  15  116.29   31.54
   2  -7  -8  434.63   76.41
  -2   7   8  410.15   48.79
  -2   7   7  170.38   32.09
   2  -7  -7  212.46   34.28
   2  -7  -7  241.21   38.87
  -2   7   7  157.26   25.69
   2  -7  -7  230.81   52.86
   2  -7  -6  315.31   57.28
  -2   7   6  420.57   48.99
   2  -7  -6  540.29   77.01
  -2   7   6  406.25   43.08
   2  -7  -6  456.91   37.33
   2  -7  -6  512.02   56.36
  -2   7   5 1444.24   95.18
   2  -7  -5 1715.35  172.70
   2  -7  -5 1449.36   54.70
   2  -7  -5 1452.13  125.51
  -2   7   5 1500.63   89.01
   2  -7  -5 1712.27   69.95
   2  -7  -5 1431.11   69.16
   2  -7  -5 1560.34  128.97
   2  -7  -5 1637.31  104.29
  -2   7   4  794.06   67.58
   2  -7  -4  708.62   37.95
   2  -7  -4  676.03  103.87
  -2   7   4  746.18   62.35
   2  -7  -4  763.14   89.51
   2  -7  -4  938.52   56.82
   2  -7  -4  720.55   45.96
   2  -7  -4  754.32   69.58
   2  -7  -3   41.60   28.23
  -2   7   3   44.23   17.23
   2  -7  -3   41.45   16.94
   2  -7  -3   42.12    8.98
   2  -7  -3   40.11   10.63
   2  -7  -3   75.85   16.96
  -2   7   3   40.94   14.75
   2  -7  -3   35.37   16.51
  -2   7   2  106.09   23.93
   2  -7  -2  112.11   33.72
   2  -7  -2  112.86   18.05
   2  -7  -2   99.24   20.48
   2  -7  -2  131.74   20.35
   2  -7  -2   88.61   23.98
  -2   7   2  118.01   22.50
  -2   7   2  131.97   26.26
   2  -7  -2  110.04   37.24
   2  -7  -1   37.73    9.87
   2  -7  -1   23.94   20.02
  -2   7   1   36.40   17.07
   2  -7  -1   64.85   26.24
  -2   7   1   57.06   18.90
   2  -7  -1   48.66   13.41
   2  -7  -1   44.95   19.87
  -2   7   1   57.74   17.20
  -2   7   0 1176.47   83.94
   2  -7   0 1275.28  108.63
   2  -7   0 1263.64   78.15
  -2   7   0 1093.22   74.93
   2  -7   0 1091.41   52.75
   2  -7   0 1145.17  101.29
  -2   7   0 1240.72   81.54
   2  -7   0 1167.62   89.95
  -2   7  -1  106.92   25.95
   2  -7   1  129.51   29.09
   2  -7   1   84.63   20.86
   2  -7   1   77.80   28.42
  -2   7  -1  159.14   31.06
  -2   7  -1  103.36   21.95
  -2   7  -2  195.96   34.25
  -2   7  -2  254.66   33.19
   2  -7   2  226.24   33.23
  -2   7  -2  222.34   37.00
  -2   7  -3    3.91   12.36
  -2   7  -3    9.29    4.70
  -2   7  -3    6.09    5.65
   2  -7   3    5.21    9.14
   2  -7   3    9.78    6.21
  -2   7  -3   15.35   12.69
  -2   7  -4  630.63   61.30
   2  -7   4  559.46   71.69
   2  -7   4  598.18   56.40
  -2   7  -4  700.46   53.07
   2  -7   4  667.34   63.57
  -2   7  -4  606.63   67.74
   2  -7   5   44.32   20.40
  -2   7  -5   37.17   16.70
  -2   7  -5   51.22   15.14
   2  -7   5   55.70   18.94
  -2   7  -5   65.80   25.65
   2  -7   5   44.69   15.76
  -2   7  -6   91.13   30.50
   2  -7   6  101.82   24.93
  -2   7  -6  183.98   32.58
   2  -7   6  137.16   38.66
   2  -7   6  167.92   30.63
  -2   7  -7   73.79   28.89
   2  -7   7   56.61   19.82
  -2   7  -7   40.36   17.71
   2  -7   7   34.88   19.76
   2  -7   7   51.76   19.87
   2  -7   8   22.69   12.31
   2  -7   8   -4.89   10.69
  -2   7  -8   12.06    9.98
   2  -7   8   14.63   14.42
  -2   7  -9  537.88   53.00
   2  -7   9  500.45   56.00
   2  -7   9  535.69   53.82
   2  -7   9  473.39   69.66
  -2   7 -10  313.79   39.79
   2  -7  10  302.89   40.47
   2  -7  10  279.01   42.87
   2  -7  10  167.98   44.34
  -2   7 -11   13.76    8.56
   2  -7  11   35.07   14.42
   2  -7  11   30.62   20.74
   2  -7  12  128.40   24.90
  -2   7 -12  194.94   29.38
   2  -7  12  152.58   34.29
   2  -7  13  554.67   65.81
   2  -7  14  117.56   31.48
   2  -7  15   82.77   28.45
  -2   6   9  265.12   35.78
   2  -6  -9  214.50   54.02
   2  -6  -8  234.62   29.59
   2  -6  -8  189.06   47.56
  -2   6   8  268.46   36.13
   2  -6  -8  155.72   29.80
  -2   6   7  376.43   43.36
   2  -6  -7  267.16   65.69
   2  -6  -7  373.85   40.71
   2  -6  -7  329.31   43.03
   2  -6  -7  220.02   42.79
   2  -6  -7  348.59   61.51
  -2   6   7  314.36   33.05
   2  -6  -6 1087.55   75.01
   2  -6  -6 1415.73  147.56
  -2   6   6 1012.98   73.84
  -2   6   6 1184.29   69.63
   2  -6  -6 1044.20   97.40
   2  -6  -6 1066.50   60.28
   2  -6  -6 1117.32  106.08
   2  -6  -6 1143.12   82.10
  -2   6   5 1341.95   85.06
   2  -6  -5 1529.04  146.17
   2  -6  -5 1220.37  104.64
  -2   6   5 1257.92   75.53
   2  -6  -5 1324.58   45.78
   2  -6  -5 1398.17   53.83
   2  -6  -5 1295.55   65.82
   2  -6  -5 1613.88  120.34
   2  -6  -5 1385.70   89.39
  -2   6   4  639.98   55.60
   2  -6  -4  685.96   93.40
   2  -6  -4  597.05   30.36
   2  -6  -4  510.10   66.52
  -2   6   4  718.19   55.71
   2  -6  -4  732.16   43.34
   2  -6  -4  618.85   41.68
   2  -6  -4  603.74   57.33
   2  -6  -3  368.32   53.59
  -2   6   3  370.91   41.65
   2  -6  -3  355.41   59.71
   2  -6  -3  427.49   35.80
   2  -6  -3  384.29   45.48
   2  -6  -3  393.90   33.17
  -2   6   3  343.82   39.00
   2  -6  -2 2147.47  133.02
  -2   6   2 2097.21  106.23
  -2   6   2 2065.63  104.76
   2  -6  -2 2099.15  139.85
   2  -6  -2 2355.77   97.13
   2  -6  -2 2184.55   91.59
   2  -6  -2 2207.72  115.49
  -2   6   2 2215.56  101.18
   2  -6  -1 2228.10   97.22
   2  -6  -1 2106.13   83.45
  -2   6   1 2028.20  100.67
   2  -6  -1 2037.58  127.58
  -2   6   1 2087.66  105.66
   2  -6  -1 1881.74  122.52
  -2   6   1 2095.36  100.53
   2  -6  -1 2001.94  110.95
   2  -6   0  457.01   41.75
  -2   6   0  523.08   45.59
   2  -6   0  407.46   30.59
   2  -6   0  405.72   48.76
  -2   6   0  422.40   44.00
  -2   6   0  363.77   42.36
   2  -6   0  392.83   52.48
  -2   6  -1  134.31   26.29
   2  -6   1  132.96   23.65
   2  -6   1  134.30   28.99
  -2   6  -1  119.56   25.16
  -2   6  -1  146.82   23.43
  -2   6  -2   49.47   16.30
  -2   6  -2   71.74   12.36
  -2   6  -2   47.43   13.40
   2  -6   2   63.74   16.82
  -2   6  -2   75.65   21.18
   2  -6   2   40.16   16.95
   2  -6   3 1339.26   79.41
  -2   6  -3 1264.30   82.03
  -2   6  -3 1381.52   94.21
  -2   6  -3 1226.99   69.22
  -2   6  -3 1308.43   64.98
  -2   6  -4   14.43   11.77
   2  -6   4   -3.80    7.15
   2  -6   4   13.48   10.15
  -2   6  -4   10.71   12.32
  -2   6  -4    6.15    5.10
  -2   6  -5   98.53   30.19
  -2   6  -5  144.86   26.07
   2  -6   5  106.91   28.37
   2  -6   5  102.81   22.57
  -2   6  -6    6.75   15.76
   2  -6   6    8.22   14.23
  -2   6  -6    4.36    8.48
   2  -6   6   13.04    9.13
  -2   6  -7   95.74   31.38
   2  -6   7   87.61   22.82
   2  -6   7   75.99   26.23
  -2   6  -7   75.64   19.07
  -2   6  -8  294.81   53.92
  -2   6  -8  395.46   42.55
   2  -6   8  274.84   38.87
   2  -6   8  271.65   48.13
   2  -6   9  200.94   45.87
   2  -6   9  148.22   25.50
   2  -6   9  185.73   32.71
   2  -6   9  128.02   33.71
  -2   6  -9  158.74   27.05
   2  -6  10   13.37   16.16
   2  -6  10   13.83    9.49
   2  -6  10    3.81    8.84
  -2   6 -10    5.76    6.07
   2  -6  10    6.19   11.63
   2  -6  11   18.24   12.15
   2  -6  11   20.91   13.00
  -2   6 -11    6.63    6.09
   2  -6  12  214.22   27.93
   2  -6  12  233.19   39.90
   2  -6  13   59.43   21.01
   2  -6  14    7.39   11.54
   2  -6  14    2.14    7.50
   2  -5 -10   13.82   15.59
  -2   5  10   16.70   10.74
   2  -5  -9    7.38   10.01
  -2   5   9  -13.39    7.94
  -2   5   9   15.73   10.51
   2  -5  -9   -3.30   10.65
   2  -5  -8   11.40   16.60
   2  -5  -8    8.91   12.52
  -2   5   8   38.35   13.13
   2  -5  -8   39.96   15.66
  -2   5   8   32.16   15.94
   2  -5  -8   32.95   10.15
   2  -5  -7  821.30   55.89
   2  -5  -7  831.21   75.85
   2  -5  -7 1127.43  121.17
  -2   5   7  847.53   61.63
   2  -5  -7  949.80   59.04
   2  -5  -7  975.31   71.67
   2  -5  -7  968.28   95.82
   2  -5  -6  943.01   62.30
  -2   5   6  871.02   61.72
   2  -5  -6 1112.11  120.16
  -2   5   6  946.19   57.00
   2  -5  -6  915.30   80.42
   2  -5  -6  932.58   54.72
   2  -5  -6  880.59   66.60
   2  -5  -6  914.45   88.05
  -2   5   5  610.12   50.43
   2  -5  -5  496.60   74.33
   2  -5  -5  666.66   67.45
  -2   5   5  549.93   43.85
   2  -5  -5  532.33   20.89
   2  -5  -5  595.17   23.78
   2  -5  -5  615.37   42.10
   2  -5  -5  580.45   52.21
   2  -5  -5  678.48   71.77
  -2   5   4  444.88   42.67
   2  -5  -4  431.70   63.35
   2  -5  -4  520.84   24.08
   2  -5  -4  569.00   30.99
   2  -5  -4  503.00   47.93
   2  -5  -4  486.71   36.04
   2  -5  -4  473.05   55.47
  -2   5   4  523.45   43.40
  -2   5   3 1252.67   71.07
   2  -5  -3 1150.49   86.22
   2  -5  -3 1227.32   99.14
  -2   5   3 1268.16   73.05
   2  -5  -3 1334.29   57.72
   2  -5  -3 1164.98   59.92
   2  -5  -3 1293.60   78.18
   2  -5  -2 3904.69  168.98
  -2   5   2 3903.63  144.94
  -2   5   2 4030.25  145.08
   2  -5  -2 4001.18  176.91
   2  -5  -2 4165.99  128.97
   2  -5  -2 3958.67  133.16
  -2   5   2 4007.89  141.96
   2  -5  -2 3866.44  152.63
   2  -5  -1 2772.52  102.82
  -2   5   1 2824.86  112.39
   2  -5  -1 2850.43   99.39
   2  -5  -1 2672.99  130.46
  -2   5   1 2728.02  116.03
   2  -5  -1 2731.08  133.53
   2  -5  -1 2784.31  124.17
  -2   5   1 2715.11  112.65
   2  -5   0  721.29   48.43
  -2   5   0  835.31   54.03
   2  -5   0  804.13   44.03
  -2   5   0  740.12   55.27
   2  -5   0  788.64   65.68
   2  -5   0  718.46   59.40
  -2   5   0  797.36   57.75
   2  -5   1 1202.53   65.79
  -2   5  -1 1168.15   63.79
  -2   5  -1 1161.38   51.64
  -2   5  -1 1217.64   72.33
  -2   5  -1 1113.35   73.32
   2  -5   1 1271.21   82.21
   2  -5   2 1639.02   80.86
  -2   5  -2 1523.14   67.77
  -2   5  -2 1678.54   76.17
  -2   5  -2 1554.64   84.52
  -2   5  -2 1606.79   93.21
   2  -5   3 2530.04  111.06
   2  -5   3 2870.07  113.81
  -2   5  -3 2852.52  105.69
  -2   5  -3 2742.35  117.77
  -2   5  -3 2803.75  133.73
   2  -5   4  348.52   36.87
   2  -5   4  388.65   36.53
  -2   5  -4  318.21   44.43
  -2   5  -4  398.98   40.00
  -2   5  -5  145.24   32.35
  -2   5  -5  154.22   25.19
   2  -5   5  127.73   23.60
  -2   5  -6  105.72   29.72
   2  -5   6   61.22   18.75
  -2   5  -6   72.01   16.79
   2  -5   7  762.99   59.51
  -2   5  -7  634.74   73.93
  -2   5  -7  691.71   51.97
  -2   5  -8    6.70    8.20
   2  -5   8   17.97   14.39
   2  -5   8   13.93    9.89
  -2   5  -8    9.29    4.98
  -2   5  -9   82.66   16.49
   2  -5   9   90.52   29.98
   2  -5   9   73.69   16.69
   2  -5   9  101.13   23.21
  -2   5  -9   51.52   24.55
   2  -5  10   18.32   12.16
   2  -5  10    4.72    6.42
  -2   5 -10    6.61    5.42
   2  -5  10    7.11   10.74
   2  -5  11   27.72    9.45
   2  -5  11   21.73   10.36
   2  -5  11   17.65   10.88
   2  -5  12   33.59   17.05
   2  -5  13    6.33   12.43
   2  -5  13    8.30    7.35
   2  -5  14  -11.84   10.33
   2  -5  14   -5.66    6.64
  -2   4  11   19.14   12.47
   2  -4 -11   29.12   21.99
  -2   4  10    7.31    8.27
   2  -4 -10   -1.40    6.38
   2  -4 -10    0.63   15.11
   2  -4  -9   12.17    4.07
   2  -4  -9   19.88   16.16
  -2   4   9    6.19    6.33
  -2   4   9   19.46   15.16
   2  -4  -9   18.74   10.41
  -2   4   8  119.49   20.10
   2  -4  -8   82.33   30.63
   2  -4  -8  115.21   15.60
   2  -4  -8  117.70   34.25
   2  -4  -8   96.73   22.39
  -2   4   8  102.92   23.00
   2  -4  -8  101.58   21.55
   2  -4  -7    3.12    8.08
  -2   4   7   -1.96    8.85
   2  -4  -7   -0.52   17.30
  -2   4   7    5.79    5.46
   2  -4  -7    3.04    3.98
   2  -4  -7   -0.08    8.65
   2  -4  -7    4.18    4.60
   2  -4  -7   -2.98   10.76
   2  -4  -6  272.69   38.17
  -2   4   6  297.75   31.96
   2  -4  -6  316.27   58.42
   2  -4  -6  277.22   34.56
   2  -4  -6  325.15   49.36
  -2   4   6  352.30   30.81
   2  -4  -6  297.50   29.44
   2  -4  -6  307.95   30.89
   2  -4  -5  180.56   24.41
   2  -4  -5  183.71   27.17
   2  -4  -5  158.81   35.41
  -2   4   5  160.12   23.83
   2  -4  -5  210.29   36.18
  -2   4   5  195.27   23.36
   2  -4  -5  156.76   20.28
   2  -4  -5  171.90   29.21
  -2   4   4  549.68   42.37
   2  -4  -4  444.73   55.32
   2  -4  -4  515.91   19.97
   2  -4  -4  552.18   23.29
  -2   4   4  538.20   39.96
   2  -4  -4  546.53   50.92
   2  -4  -4  517.87   36.85
   2  -4  -4  490.11   43.23
  -2   4   3 1360.12   69.37
   2  -4  -3 1375.30   90.15
   2  -4  -3 1439.10   52.08
  -2   4   3 1463.89   71.21
   2  -4  -3 1336.06   81.20
   2  -4  -3 1495.58   66.56
   2  -4  -3 1517.73   78.17
  -2   4   2 2245.28   89.28
   2  -4  -2 1891.49   99.58
   2  -4  -2 2083.02   73.17
   2  -4  -2 1962.30   98.76
  -2   4   2 2043.29   88.47
   2  -4  -2 2069.52   84.17
   2  -4  -2 2179.17   96.85
  -2   4   2 2153.31   90.28
  -2   4   1 1296.12   67.92
   2  -4  -1 1189.29   72.90
   2  -4  -1 1363.52   61.11
  -2   4   1 1348.63   64.60
   2  -4  -1 1250.71   71.96
   2  -4  -1 1260.28   72.13
  -2   4   1 1372.81   69.52
   2  -4  -1 1304.48   56.95
  -2   4   0  968.75   58.10
  -2   4   0  987.94   52.58
   2  -4   0  935.14   47.91
  -2   4   0  947.28   59.64
   2  -4   0 1038.12   65.14
   2  -4   0  962.42   50.28
  -2   4  -1 2992.66  113.75
  -2   4  -1 3079.36  104.82
  -2   4  -1 2859.41   97.12
  -2   4  -1 2968.76  120.55
   2  -4   1 2881.53  104.71
  -2   4  -2 7564.39  236.86
  -2   4  -2 7778.78  221.07
   2  -4   2 7378.02  212.56
  -2   4  -3 1443.59   72.68
   2  -4   3 1410.31   79.73
   2  -4   3 1456.56   67.42
  -2   4  -3 1415.67   85.94
   2  -4   3 1438.75   71.99
  -2   4  -4 2356.72   96.47
   2  -4   4 2128.46  103.46
   2  -4   4 2323.00   89.31
  -2   4  -4 2073.81  114.45
   2  -4   4 2213.34   96.51
   2  -4   5 1089.42   71.27
  -2   4  -5 1094.28   61.29
   2  -4   5 1152.63   58.57
  -2   4  -5 1081.17   83.34
   2  -4   5 1027.15   63.14
   2  -4   6  584.40   52.68
  -2   4  -6  610.51   43.82
   2  -4   6  545.36   46.75
  -2   4  -6  587.29   51.15
   2  -4   6  693.10   44.03
  -2   4  -6  635.86   66.52
   2  -4   7  916.61   69.14
  -2   4  -7 1019.85   56.67
   2  -4   7  985.67   84.79
   2  -4   7  872.60   54.58
   2  -4   7  909.07   63.26
   2  -4   7 1095.18   56.82
  -2   4  -7  923.95   85.74
   2  -4   8   23.40    8.16
  -2   4  -8   33.02    9.56
   2  -4   8   16.03   15.47
   2  -4   8    8.77    5.80
   2  -4   8   42.01   15.43
   2  -4   8   29.80   13.80
   2  -4   9  106.28   30.77
   2  -4   9   88.27   20.22
   2  -4   9   99.37   16.42
   2  -4   9  115.12   18.24
   2  -4   9   90.15   22.97
   2  -4  10  108.60   23.81
   2  -4  10   82.59   13.74
   2  -4  10  134.35   19.56
   2  -4  10   74.98   21.13
   2  -4  11   37.93   10.47
   2  -4  11   22.29    5.83
   2  -4  11   27.47   12.62
   2  -4  12   11.44    7.20
   2  -4  12   -7.31   10.50
   2  -4  13   70.42   25.84
   2  -4  13   23.74   13.65
   2  -4  14   -5.89   11.78
  -2   3  13  146.38   34.60
  -2   3  12   45.45   18.47
   2  -3 -12   53.07   32.35
  -2   3  11   14.65    9.64
   2  -3 -11   28.62   15.35
   2  -3 -11    2.02   16.18
   2  -3 -10   27.85   13.18
   2  -3 -10   14.88   16.41
  -2   3   9   20.58    7.10
   2  -3  -9   13.99   17.06
  -2   3   9    8.26    7.57
   2  -3  -9   11.30    7.56
   2  -3  -8   23.44   10.52
  -2   3   8   12.24    5.92
   2  -3  -8   21.61   14.61
   2  -3  -8   15.45    8.34
   2  -3  -8   10.52    4.57
  -2   3   8   19.42   10.34
   2  -3  -8   37.80   14.86
  -2   3   7  456.75   34.32
   2  -3  -7  513.04   66.12
   2  -3  -7  388.98   28.65
   2  -3  -7  320.42   36.48
   2  -3  -7  456.05   38.81
  -2   3   7  435.15   43.27
   2  -3  -7  441.10   57.98
   2  -3  -7  455.74   44.36
   2  -3  -6  108.74   20.64
   2  -3  -6  116.51   16.54
   2  -3  -6  119.92   32.72
  -2   3   6  116.49   17.19
   2  -3  -6   75.09   21.60
   2  -3  -6   86.88   15.68
   2  -3  -6   80.88   18.16
   2  -3  -5  269.43   26.60
   2  -3  -5  287.30   41.83
  -2   3   5  258.13   24.23
   2  -3  -5  275.10   31.26
  -2   3   5  276.12   26.09
   2  -3  -5  301.79   27.97
   2  -3  -5  254.37   29.90
   2  -3  -4  556.42   39.27
   2  -3  -4  557.18   50.95
  -2   3   4  578.91   37.68
   2  -3  -4  529.32   41.88
  -2   3   4  559.87   37.30
  -2   3   4  512.49   40.95
   2  -3  -4  544.38   36.88
   2  -3  -4  535.09   41.52
   2  -3  -3  153.44   21.87
  -2   3   3  176.83   20.11
   2  -3  -3  151.55   23.60
   2  -3  -3  165.03   11.31
  -2   3   3  152.32   19.05
   2  -3  -3  148.02   18.68
   2  -3  -3  186.15   23.40
  -2   3   2  611.84   37.21
   2  -3  -2  593.74   42.20
  -2   3   2  560.51   38.24
   2  -3  -2  491.40   38.97
   2  -3  -2  546.01   26.84
   2  -3  -2  567.76   37.78
   2  -3  -2  551.17   40.77
   2  -3  -1  116.62   18.47
  -2   3   1  132.49   18.72
  -2   3   1  124.91   15.94
   2  -3  -1  108.86   15.03
   2  -3  -1   99.49   15.99
   2  -3  -1  100.21   12.49
   2  -3  -1  104.45   18.07
  -2   3   1  120.03   17.80
   2  -3   0 2121.69   75.38
  -2   3   0 1858.69   73.27
  -2   3   0 2331.18   80.18
   2  -3   0 2118.46   78.78
  -2   3   0 2235.37   76.87
  -2   3   0 2121.07   84.06
  -2   3   0 2209.38   89.03
   2  -3   0 2157.02   91.82
   2  -3   1 8167.67  214.61
  -2   3  -1 7796.15  215.28
  -2   3  -1 8404.34  218.85
  -2   3  -1 8416.07  223.77
  -2   3  -1 8369.40  234.48
   2  -3   2 2084.29   83.08
   2  -3   2 2212.69   80.53
   2  -3   2 2233.31   91.16
  -2   3  -2 2335.96   87.39
  -2   3  -2 2116.83   96.16
   2  -3   3  691.83   46.51
  -2   3  -3  789.98   45.92
  -2   3  -3  698.45   54.66
   2  -3   3  686.71   44.28
  -2   3  -4  761.68   44.20
   2  -3   4  659.50   46.40
  -2   3  -4  738.42   59.25
   2  -3   4  712.81   46.87
  -2   3  -5 1750.37   86.55
   2  -3   5 1752.51   81.59
  -2   3  -5 1752.51  101.99
   2  -3   5 1851.31   83.50
  -2   3  -5 1744.01   72.56
   2  -3   5 1684.82   96.79
   2  -3   5 1695.37   74.20
   2  -3   6 4755.15  160.68
  -2   3  -6 4432.32  166.33
  -2   3  -6 4601.51  194.52
   2  -3   6 4940.77  162.05
  -2   3  -6 5252.15  145.91
   2  -3   6 4825.90  191.18
   2  -3   6 4809.48  148.62
   2  -3   7  656.37   64.73
   2  -3   7  573.61   47.59
   2  -3   7  641.19   39.95
  -2   3  -7  706.14   56.92
   2  -3   7  670.93   50.34
   2  -3   8  329.97   48.17
   2  -3   8  345.46   37.06
   2  -3   8  359.59   28.10
  -2   3  -8  422.29   45.01
   2  -3   8  397.86   39.30
   2  -3   9  641.95   53.00
   2  -3   9  600.02   68.29
   2  -3   9  557.96   47.00
   2  -3   9  625.54   34.01
   2  -3  10  575.81   51.39
   2  -3  10  635.18   42.25
   2  -3  11  134.08   32.96
  -2   3 -11   97.49   31.50
   2  -3  11  123.73   24.02
   2  -3  12   20.22   10.59
   2  -3  12   14.89    9.76
   2  -3  13    6.49    8.07
   2  -3  13  -16.91   11.87
   2  -3  14   20.91   14.93
  -2   2  14  272.52   49.55
  -2   2  13  142.17   34.45
  -2   2  12  596.55   65.63
   2  -2 -12  603.37   94.59
  -2   2  11   14.38   13.61
   2  -2 -11   34.22   22.86
  -2   2  10  231.48   37.12
   2  -2 -10  216.09   49.48
  -2   2   9   45.09   16.05
   2  -2  -9   40.12   23.07
   2  -2  -8  146.19   27.74
  -2   2   8  153.65   16.12
   2  -2  -8  157.73   19.29
   2  -2  -8  125.00   32.21
  -2   2   8  154.76   26.10
   2  -2  -8  155.59   12.71
   2  -2  -7   66.07   10.04
   2  -2  -7   54.37   18.03
   2  -2  -7   86.36   25.56
  -2   2   7   67.63   10.88
  -2   2   7   50.77   15.33
   2  -2  -7   68.34   14.91
   2  -2  -7   59.70   13.57
   2  -2  -6  872.04   70.39
  -2   2   6  830.38   41.10
   2  -2  -6  794.37   49.25
   2  -2  -6  848.36   41.24
   2  -2  -6  859.95   47.81
   2  -2  -5  265.77   32.09
  -2   2   5  263.24   21.34
   2  -2  -5  264.39   24.60
  -2   2   5  234.62   27.37
   2  -2  -5  220.12   23.33
   2  -2  -5  243.88   22.15
   2  -2  -4   15.41    6.50
  -2   2   4   11.45    5.10
   2  -2  -4   24.90    8.96
   2  -2  -4   10.55    5.74
  -2   2   4   29.94   10.52
   2  -2  -4   30.50    8.99
   2  -2  -3  650.65   38.73
  -2   2   3  686.34   35.00
   2  -2  -3  703.14   40.28
   2  -2  -3  653.68   38.81
  -2   2   3  626.99   37.07
   2  -2  -3  618.16   20.26
  -2   2   3  587.60   40.35
   2  -2  -3  620.59   38.06
   2  -2  -3  679.43   42.86
   2  -2  -3  696.08   47.88
   2  -2  -2   -0.06    5.95
   2  -2  -2    0.45    4.44
   2  -2  -2    1.24    4.85
  -2   2   2    3.49    4.87
   2  -2  -2    2.24    2.47
  -2   2   2    4.44    3.04
   2  -2  -2   -0.66    3.02
   2  -2  -2   -2.82    3.83
   2  -2  -1  439.22   30.81
  -2   2   1  446.56   30.34
   2  -2  -1  375.40   30.38
  -2   2   1  426.68   24.78
   2  -2  -1  457.53   24.38
   2  -2  -1  467.62   28.34
   2  -2  -1  462.88   31.46
  -2   2   1  461.99   32.30
  -2   2   0  215.05   20.44
   2  -2   0  136.87   18.47
   2  -2   0  177.61   16.38
  -2   2   0  167.20   16.46
  -2   2   0  180.16   18.66
   2  -2   0  200.39   20.65
  -2   2   0  155.35   19.32
  -2   2  -1 1171.47   52.14
   2  -2   1 1064.80   51.89
   2  -2   1 1143.43   54.51
   2  -2   1 1202.97   50.63
  -2   2  -1 1166.65   56.74
   2  -2   1 1135.85   59.79
  -2   2  -1 1057.13   55.84
   2  -2   2 2372.99   84.85
   2  -2   2 2334.82   86.14
   2  -2   2 2356.80   85.29
  -2   2  -2 2517.16   84.16
   2  -2   2 2594.18  102.48
  -2   2  -2 2276.83   93.55
  -2   2  -3   23.37   10.37
  -2   2  -3   14.93    5.34
   2  -2   3   30.51    8.49
   2  -2   3   25.44    8.70
  -2   2  -3   32.73   11.51
   2  -2   3   22.19    8.04
   2  -2   4 3209.20  111.01
  -2   2  -4 3139.11  115.88
  -2   2  -4 3039.14  126.26
   2  -2   4 2998.13  120.93
  -2   2  -4 3262.11  100.80
   2  -2   4 3263.08  105.92
   2  -2   4 3158.05  102.88
  -2   2  -5 2859.56  112.79
   2  -2   5 2796.46  105.87
  -2   2  -5 2656.50  124.61
   2  -2   5 2801.81   99.26
   2  -2   5 3182.45  129.23
   2  -2   5 2884.94   94.40
  -2   2  -6 1047.85   65.81
   2  -2   6 1133.66   62.61
  -2   2  -6 1150.45   80.87
   2  -2   6 1085.98   76.03
   2  -2   6 1189.74   57.23
   2  -2   6 1179.01   50.99
  -2   2  -7  634.98   52.54
   2  -2   7  757.22   51.37
   2  -2   7  776.91   67.12
   2  -2   7  715.61   36.20
   2  -2   7  750.33   45.44
   2  -2   8  298.35   19.44
   2  -2   8  275.15   26.60
   2  -2   8  245.04   39.67
  -2   2  -8  308.38   38.00
   2  -2   8  276.42   31.70
   2  -2   9 1142.93   69.29
  -2   2  -9 1109.70   78.17
   2  -2   9 1185.31   95.64
  -2   2 -10  777.08   66.06
   2  -2  10  851.03   59.94
   2  -2  10  678.88   76.63
  -2   2 -10  669.51   74.96
   2  -2  11  408.91   62.71
   2  -2  11  417.47   42.57
  -2   2 -11  431.15   61.12
   2  -2  11  403.64   47.11
   2  -2  12   51.51   19.01
   2  -2  12   81.21   19.11
   2  -2  13  239.63   39.27
   2  -2  14  285.10   45.83
  -2   1  14  337.44   54.36
   2  -1 -13  567.43   94.40
  -2   1  13  700.82   73.72
   2  -1 -12  101.79   38.46
  -2   1  12   87.00   24.40
   2  -1 -11   85.50   32.14
  -2   1  11   75.28   21.70
   2  -1 -10 1022.38  106.02
  -2   1  10 1036.13   76.36
   2  -1  -9  864.36   89.97
  -2   1   9  837.85   64.21
   2  -1  -8  189.30   39.55
   2  -1  -8  229.96   18.81
  -2   1   8  188.54   28.01
   2  -1  -8  230.56   13.97
   2  -1  -7   -0.54    5.34
   2  -1  -7    6.66    7.56
   2  -1  -7    1.40    3.22
   2  -1  -7   14.90    7.36
  -2   1   7   13.87    8.92
   2  -1  -7    3.91    3.23
   2  -1  -6  777.13   36.17
   2  -1  -6  697.45   37.37
   2  -1  -6  681.36   49.91
   2  -1  -6  841.75   49.16
  -2   1   6  842.78   66.07
   2  -1  -5  632.89   33.34
   2  -1  -5  617.77   34.52
   2  -1  -5  628.28   38.57
  -2   1   5  582.47   42.06
   2  -1  -5  658.55   41.43
  -2   1   5  692.68   55.43
   2  -1  -4  156.54   15.51
  -2   1   4  164.72   23.96
   2  -1  -4  147.44   16.07
   2  -1  -4  167.60   18.96
  -2   1   4  164.69   20.72
   2  -1  -4  142.24   15.43
  -2   1   4  157.12   17.14
  -2   1   3  808.19   41.86
   2  -1  -3  873.28   41.23
   2  -1  -3  881.56   36.22
   2  -1  -3  803.95   25.32
   2  -1  -3  852.70   40.55
  -2   1   3  806.99   26.75
  -2   1   3  831.88   45.84
   2  -1  -3  810.49   42.42
   2  -1  -3  946.62   52.95
   2  -1  -2 2875.03   90.41
  -2   1   2 2859.31   76.61
   2  -1  -2 2913.55   75.03
   2  -1  -2 2980.23   92.30
  -2   1   2 2884.99   93.80
   2  -1  -2 2871.22   93.36
   2  -1  -2 2899.99   95.17
  -2   1   1 1067.79   48.25
   2  -1  -1 1026.55   49.22
   2  -1  -1 1006.97   46.61
   2  -1  -1 1029.33   37.99
  -2   1   1 1051.89   39.06
   2  -1   0 9086.45  232.66
  -2   1   0 9225.16  224.73
   2  -1   0 9504.28  224.11
  -2   1   0 9546.52  239.27
   2  -1   0 9595.92  236.11
  -2   1   0 9237.40  232.00
   2  -1   1 1444.84   55.21
   2  -1   1 1411.55   56.79
  -2   1  -1 1414.91   58.62
   2  -1   1 1448.23   55.28
  -2   1  -1 1357.94   57.49
   2  -1   1 1434.94   60.76
  -2   1  -2  735.52   40.29
   2  -1   2  720.44   38.57
   2  -1   2  691.76   37.17
  -2   1  -2  767.12   40.24
   2  -1   2  742.38   37.00
   2  -1   2  775.31   38.06
  -2   1  -2  728.93   41.55
   2  -1   2  753.65   45.67
  -2   1  -3  527.82   36.47
   2  -1   3  580.55   36.04
  -2   1  -3  549.29   33.42
   2  -1   3  525.47   30.71
   2  -1   3  564.10   37.76
   2  -1   3  525.70   30.62
  -2   1  -3  473.66   36.30
  -2   1  -4 1139.46   58.86
   2  -1   4 1117.92   55.11
   2  -1   4 1064.67   46.25
   2  -1   4 1135.26   48.54
  -2   1  -4  973.35   59.39
   2  -1   4 1083.15   61.30
   2  -1   5  873.18   50.16
  -2   1  -5  863.18   53.48
   2  -1   5  844.24   38.77
   2  -1   5  883.32   41.74
   2  -1   5  843.88   59.62
  -2   1  -5  847.14   58.52
  -2   1  -6   16.93    9.23
   2  -1   6   32.32   13.90
   2  -1   6   19.57    5.31
   2  -1   6   26.63    9.09
  -2   1  -6    6.55    5.78
   2  -1   6   18.20    5.78
   2  -1   7  253.14   27.98
   2  -1   7  218.77   14.56
  -2   1  -7  194.86   28.22
   2  -1   7  195.68   17.49
   2  -1   7  188.12   32.33
   2  -1   8 1152.08   65.47
  -2   1  -8 1116.17   72.69
   2  -1   8 1217.98   90.44
   2  -1   8 1118.71   96.73
  -2   1  -9 1523.77   91.81
   2  -1   9 1677.48   83.95
   2  -1   9 1928.40  134.92
  -2   1  -9 1684.84  108.41
   2  -1  10  229.84   48.79
  -2   1 -10  148.98   28.34
   2  -1  10  168.24   28.26
  -2   1 -10  202.24   37.92
   2  -1  10  168.41   25.40
   2  -1  11   49.02   13.60
   2  -1  11   87.46   30.78
   2  -1  11   78.26   20.35
   2  -1  12  348.36   38.35
   2  -1  12  426.22   49.97
   2  -1  13  472.25   55.46
  -2   0  14  223.69   43.39
  -2   0  13  159.88   34.45
  -2   0  12  258.49   41.12
   2   0 -11  791.34   97.70
  -2   0  11  907.90   73.85
  -2   0  10  356.12   17.01
   2   0 -10  445.20   68.65
  -2   0  10  427.47   46.95
  -2   0   9  950.73   34.43
  -2   0   9 1048.85   70.05
   2   0  -9 1188.71  103.74
   2   0  -8  970.85   39.67
   2   0  -8 1058.28   92.09
  -2   0   8 1043.06   84.24
  -2   0   8  989.71   36.34
  -2   0   8  947.58   63.09
   2   0  -8 1004.61   36.47
   2   0  -7  457.18   26.97
  -2   0   7  455.67   51.60
  -2   0   7  501.77   23.68
   2   0  -7  480.55   40.08
  -2   0   7  487.14   41.05
   2   0  -7  471.54   25.60
  -2   0   6  401.59   44.09
  -2   0   6  355.35   24.87
  -2   0   6  329.45   18.98
   2   0  -6  333.16   30.19
   2   0  -6  344.97   22.27
   2   0  -5 2601.42   80.99
   2   0  -5 2563.98   71.21
  -2   0   5 2493.35   66.79
  -2   0   5 2740.95   85.03
   2   0  -5 2609.58   92.81
  -2   0   5 2686.66  114.96
   2   0  -4  190.44   16.90
  -2   0   4  194.62   18.12
   2   0  -4  208.55   13.23
  -2   0   4  212.10   12.54
   2   0  -4  216.88   27.88
   2   0  -4  220.92   21.12
  -2   0   4  179.21   20.14
  -2   0   4  225.29   26.93
  -2   0   3    5.75    5.11
   2   0  -3   14.05    7.21
  -2   0   3   12.11    3.91
   2   0  -3   17.76    5.79
   2   0  -3   18.26    6.53
  -2   0   3   10.16    5.76
  -2   0   2 3332.36   99.22
   2   0  -2 3322.86   87.37
  -2   0   2 3288.55   88.16
  -2   0   2 3252.92   99.21
   2   0  -2 3394.60   98.96
   2   0  -2 3445.56  100.75
   2   0  -2 3327.58  102.17
  -2   0   1   27.10    5.00
   2   0  -1   23.09    6.95
  -2   0   1   44.78   10.46
   2   0  -1   38.90    8.14
  -2   0   1   39.94    6.89
   2   0  -1   36.35    6.64
   2   0   0    1.36    3.71
  -2   0   0    2.54    3.98
   2   0   0    4.71    3.50
  -2   0   0    7.29    5.62
   2   0   0    7.34    5.29
   2   0   1  119.24   13.39
   2   0   1  119.33   13.29
  -2   0  -1  119.23   12.31
  -2   0  -1  127.81   14.49
   2   0   1   99.76   12.64
  -2   0  -1  116.37   10.81
   2   0   2  678.46   36.79
  -2   0  -2  692.32   37.97
  -2   0  -2  707.74   34.74
   2   0   2  763.87   37.81
   2   0   2  743.50   39.62
  -2   0  -2  707.02   36.24
   2   0   2  730.28   35.35
  -2   0  -2  674.10   37.73
  -2   0  -3  316.74   29.57
  -2   0  -3  270.65   22.50
   2   0   3  329.99   29.00
   2   0   3  330.14   26.00
  -2   0  -3  306.64   25.77
  -2   0  -3  248.15   21.02
   2   0   3  261.68   19.96
  -2   0  -4  831.21   57.31
  -2   0  -4  853.65   46.95
   2   0   4  934.75   57.27
  -2   0  -4  807.57   48.15
   2   0   4  831.05   45.63
   2   0   4  918.30   39.11
  -2   0  -4  803.65   39.75
  -2   0  -5    8.92    6.67
   2   0   5   -1.42    2.30
   2   0   5   -0.16    6.60
   2   0   5   -4.13    3.76
  -2   0  -5   -0.72    3.72
  -2   0  -5    5.08    3.18
   2   0   5    7.10    4.28
   2   0   6    5.79    3.25
  -2   0  -6    2.70    4.47
   2   0   6    4.23   21.02
   2   0   6   -0.38    6.39
   2   0   6    1.99    4.07
  -2   0  -6    1.33    4.13
   2   0   6    5.60    3.06
   2   0   7  308.33   30.49
  -2   0  -7  296.41   33.65
  -2   0  -7  368.54   51.27
   2   0   7  396.78   60.24
  -2   0  -7  384.65   41.12
   2   0   8  686.18   85.53
  -2   0  -8  640.69   74.72
  -2   0  -8  707.37   55.93
   2   0   8  684.79   47.53
   2   0   8  707.72   52.69
  -2   0  -8  701.52   58.45
   2   0   9   99.86   31.85
  -2   0  -9   90.28   30.67
   2   0   9  137.02   20.91
   2   0   9  158.86   25.34
  -2   0  -9  164.72   27.95
  -2   0  -9  126.46   26.85
   2   0  10  269.37   56.80
   2   0  10  171.14   24.48
  -2   0 -10  217.33   49.23
  -2   0 -10  199.28   33.42
   2   0  10  153.56   26.29
  -2   0 -10  180.70   30.37
   2   0  11   82.29   20.87
   2   0  11  102.32   19.35
   2   0  12  463.76   51.97
   2   0  13  307.06   44.46
  -2  -1  14   -4.45    7.89
  -2  -1  13  185.17   36.89
  -2  -1  12  104.83   26.18
  -2  -1  12  102.91   12.27
  -2  -1  11  605.56   59.00
  -2  -1  11  594.67   33.82
  -2  -1  10 1221.86   80.59
  -2  -1  10 1222.72   53.12
  -2  -1   9   56.09   21.71
   2   1  -9   52.22    8.08
  -2  -1   9   57.59   16.28
  -2  -1   9   62.33   11.15
   2   1  -9   68.77   13.78
   2   1  -8  761.92   52.17
   2   1  -8  825.93   79.28
  -2  -1   8  859.34   43.11
  -2  -1   8  845.57   40.25
  -2  -1   8  887.15   59.54
  -2  -1   8  989.69   80.76
  -2  -1   7 1050.05   46.54
  -2  -1   7  958.02   45.86
  -2  -1   7 1045.31   78.52
   2   1  -7 1014.11   42.79
  -2  -1   6 3281.63  142.49
   2   1  -6 3268.37   97.12
   2   1  -6 3406.28  116.39
  -2  -1   6 3289.06  101.15
  -2  -1   5  581.61   33.01
   2   1  -5  523.84   31.30
  -2  -1   5  546.75   48.17
   2   1  -5  593.33   37.48
   2   1  -5  563.92   31.26
  -2  -1   4  458.87   23.56
   2   1  -4  515.25   29.83
  -2  -1   4  545.46   43.51
   2   1  -4  499.89   32.07
  -2  -1   4  492.36   30.22
  -2  -1   3 3720.44  123.96
   2   1  -3 3832.04  108.70
  -2  -1   3 3553.05   97.61
   2   1  -3 3728.07  107.29
  -2  -1   3 3557.94  108.00
  -2  -1   2  514.36   26.27
   2   1  -2  509.13   25.55
   2   1  -2  500.41   27.98
  -2  -1   2  514.98   30.01
   2   1  -2  537.34   30.88
   2   1  -2  528.25   33.53
   2   1  -1 6695.24  166.77
   2   1  -1 6790.88  167.44
  -2  -1   1 6858.09  178.64
   2   1  -1 6501.75  180.11
   2   1  -1 6686.92  173.73
  -2  -1   0 2500.68   90.70
   2   1   0 2549.52   81.50
  -2  -1   0 2459.56   82.36
   2   1   0 2581.27   78.98
  -2  -1  -1  851.27   40.73
   2   1   1  833.69   32.17
  -2  -1  -1  849.25   41.38
   2   1   1  788.76   38.68
   2   1   1  861.55   39.88
  -2  -1  -2  803.80   41.79
   2   1   2  841.12   41.11
  -2  -1  -2  839.89   28.98
  -2  -1  -2  860.11   46.13
   2   1   2  817.77   38.70
  -2  -1  -2  812.32   40.86
  -2  -1  -3  411.34   27.49
   2   1   3  475.24   57.80
  -2  -1  -3  416.55   30.47
   2   1   3  436.48   30.20
   2   1   3  432.88   26.53
  -2  -1  -3  422.28   21.28
  -2  -1  -3  432.26   36.74
  -2  -1  -4  197.61   16.40
   2   1   4  211.90   41.50
  -2  -1  -4  143.42   19.15
   2   1   4  191.60   20.33
  -2  -1  -4  194.03   18.38
   2   1   4  179.29   16.42
  -2  -1  -4  167.03   25.90
   2   1   5  491.02   65.31
   2   1   5  457.92   33.31
  -2  -1  -5  404.62   34.46
  -2  -1  -5  396.81   28.22
  -2  -1  -5  394.04   26.35
   2   1   6  552.21   75.34
  -2  -1  -6  475.11   54.89
   2   1   6  506.10   38.49
   2   1   6  541.11   27.97
   2   1   6  542.50   38.49
  -2  -1  -6  552.42   43.11
  -2  -1  -6  570.80   38.33
  -2  -1  -6  531.84   29.25
   2   1   7  860.20  100.64
   2   1   7  785.84   48.57
  -2  -1  -7  732.81   74.71
  -2  -1  -7  800.17   55.49
   2   1   7  793.11   50.77
  -2  -1  -7  763.94   49.66
  -2  -1  -8   17.46   14.64
   2   1   8   23.40    8.70
  -2  -1  -8   31.75   12.23
   2   1   8   30.53   10.43
  -2  -1  -8   10.43    8.11
   2   1   9   22.36   18.63
  -2  -1  -9    5.80   14.97
   2   1   9    5.78    5.18
  -2  -1  -9    7.85    8.35
   2   1   9    3.85    6.45
  -2  -1  -9    0.22    4.44
   2   1  10   49.04   13.42
  -2  -1 -10   47.57   23.52
   2   1  10   43.17   25.29
   2   1  10   35.01   12.60
  -2  -1 -11  270.60   60.20
   2   1  11  204.13   32.20
   2   1  12  344.77   44.60
  -2  -2  15   66.94   23.35
  -2  -2  14  124.40   31.87
  -2  -2  13   53.90   18.95
  -2  -2  12   61.69   13.35
  -2  -2  12   60.99   20.49
  -2  -2  11  125.68   27.15
  -2  -2  11  153.49   20.60
   2   2 -11  168.36   12.81
   2   2 -11  122.95   10.04
   2   2 -10  126.97   19.44
  -2  -2  10  157.21   20.98
  -2  -2  10  166.61   28.85
  -2  -2  10  158.29   15.82
  -2  -2   9  381.46   32.80
  -2  -2   9  396.51   27.83
  -2  -2   9  416.63   41.75
  -2  -2   9  335.44   51.17
   2   2  -9  319.54   36.28
  -2  -2   8  408.32   33.53
  -2  -2   8  438.19   40.75
  -2  -2   8  447.74   30.64
  -2  -2   8  404.59   53.38
   2   2  -8  431.35   44.98
  -2  -2   7 1119.03   84.07
  -2  -2   7 1000.19   48.92
  -2  -2   6 1313.76   86.43
  -2  -2   6 1303.80   57.47
   2   2  -6 1355.10   56.10
   2   2  -6 1311.04   46.86
  -2  -2   5 1452.12   85.94
   2   2  -5 1594.52   75.51
  -2  -2   5 1460.33   61.70
   2   2  -5 1475.79   59.42
   2   2  -5 1538.72   65.94
   2   2  -4 2596.51  110.93
   2   2  -4 2208.59   76.83
  -2  -2   4 2094.45   77.69
   2   2  -4 2139.67   76.08
  -2  -2   4 2140.79   78.55
  -2  -2   3   60.39    9.52
  -2  -2   3   66.76   10.82
   2   2  -3   77.13   10.80
  -2  -2   3   61.29   11.61
   2   2  -3   73.48   12.16
   2   2  -2 5789.24  204.04
   2   2  -2 5558.60  157.67
  -2  -2   2 5773.05  148.27
   2   2  -2 5701.91  143.85
   2   2  -2 5660.13  155.20
   2   2  -1 1211.79   56.88
   2   2  -1 1291.51   87.01
  -2  -2   1 1360.59   56.57
   2   2  -1 1406.94   52.67
  -2  -2   1 1261.15   46.05
   2   2  -1 1395.81   45.70
  -2  -2   1 1285.62   55.71
   2   2  -1 1298.82   55.21
   2   2   0   61.08   22.24
  -2  -2   0   45.29   11.48
   2   2   0   54.73    9.67
  -2  -2   0   50.93    9.79
   2   2   0   54.30    7.06
   2   2   0   45.45    9.75
  -2  -2   0   41.40    9.47
  -2  -2  -1 1526.91   61.60
   2   2   1 1499.35  104.04
   2   2   1 1666.53   63.30
  -2  -2  -1 1477.00   62.10
   2   2   1 1588.25   60.84
  -2  -2  -2 1059.35   51.07
   2   2   2 1178.23   96.44
  -2  -2  -2 1046.32   50.25
   2   2   2 1091.87   49.22
   2   2   2 1089.91   49.49
   2   2   3  826.88   43.34
   2   2   3  729.26   82.11
  -2  -2  -3  745.77   43.50
  -2  -2  -3  743.08   53.40
  -2  -2  -3  784.84   42.49
   2   2   4  133.87   38.04
   2   2   4  167.51   19.49
  -2  -2  -4  143.59   18.85
   2   2   4  166.36   27.66
  -2  -2  -4  180.25   19.13
   2   2   5   89.95   20.65
   2   2   5  118.51   40.43
  -2  -2  -5  111.17   25.35
   2   2   5   88.22   14.76
  -2  -2  -5   94.71   16.76
   2   2   5  103.17   14.37
  -2  -2  -5  103.09   13.86
  -2  -2  -6   62.85    7.53
  -2  -2  -6   95.03   26.39
   2   2   6   85.49   15.02
  -2  -2  -6   48.81   13.04
  -2  -2  -6   50.44    9.80
   2   2   6   32.07   11.18
   2   2   7  139.42   41.98
   2   2   7  190.25   23.01
  -2  -2  -7  156.99   37.36
   2   2   7  194.92   15.90
   2   2   7  176.22   12.97
  -2  -2  -7  215.85   28.45
  -2  -2  -7  189.12   16.00
  -2  -2  -7  182.04   15.06
   2   2   8  204.81   50.88
   2   2   8  157.80   21.37
  -2  -2  -8  185.71   42.82
   2   2   8  130.13   20.74
  -2  -2  -8  182.11   27.85
  -2  -2  -8  150.56   15.20
   2   2   9   33.42   10.71
  -2  -2  -9   24.66   15.65
   2   2   9   -5.60    9.07
   2   2   9   29.37   11.44
  -2  -2 -10  190.38   48.06
   2   2  10  184.15   43.40
   2   2  10  130.80   24.51
  -2  -2 -11  272.64   60.39
  -2  -3  15   88.95   29.71
  -2  -3  14   17.06   13.91
  -2  -3  13    7.86   12.30
  -2  -3  13   21.02   10.15
  -2  -3  12  224.83   29.01
  -2  -3  12  248.22   40.00
   2   3 -12  213.97   19.18
  -2  -3  12  191.75   15.23
   2   3 -11   76.29   17.06
  -2  -3  11  107.15   24.80
  -2  -3  11   71.25   16.82
  -2  -3  11  104.94   14.37
  -2  -3  10  325.06   34.58
  -2  -3  10  371.95   42.52
   2   3 -10  326.47   38.96
  -2  -3  10  371.93   29.39
  -2  -3   9  116.46   32.23
   2   3  -9  101.84   23.45
  -2  -3   9  124.04   21.62
  -2  -3   9  120.73   22.49
  -2  -3   9  123.91   17.05
  -2  -3   8  114.13   17.00
  -2  -3   8   79.60   26.80
   2   3  -8  120.47   26.60
  -2  -3   7 1755.58  111.76
   2   3  -7 1386.60   95.33
   2   3  -7 1765.83   56.96
  -2  -3   7 1756.09   73.96
  -2  -3   6    3.51    4.44
   2   3  -6    2.75    5.91
  -2  -3   5  361.23   41.05
   2   3  -5  361.34   38.85
  -2  -3   5  295.42   27.38
  -2  -3   5  380.51   30.18
  -2  -3   4 1245.55   81.64
   2   3  -4 1309.44   87.56
  -2  -3   4 1230.86   58.97
   2   3  -4 1206.27   57.22
   2   3  -4 1288.13   55.06
  -2  -3   4 1231.92   54.13
   2   3  -3 2632.03   91.10
   2   3  -3 3056.74  149.82
  -2  -3   3 2535.89  129.00
   2   3  -3 2461.32   91.37
   2   3  -3 2786.38   82.61
  -2  -3   3 2523.85   81.99
   2   3  -2 2061.14   75.37
  -2  -3   2 1827.46  112.32
   2   3  -2 1938.27   60.93
  -2  -3   2 1988.09   64.69
   2   3  -2 2134.34   79.75
  -2  -3   1   62.99   11.22
  -2  -3   1   81.70    8.99
   2   3  -1   81.47    7.56
   2   3  -1   93.14   17.41
  -2  -3   1   49.53   11.04
   2   3  -1   83.83   30.48
   2   3   0 1553.28  119.56
  -2  -3   0 1421.29   65.60
   2   3   0 1443.97   38.51
   2   3   0 1514.63   60.14
  -2  -3   0 1420.68   60.37
  -2  -3   0 1463.91   64.80
   2   3   0 1482.34   64.95
  -2  -3  -1 1197.55   55.43
   2   3   1 1224.42   53.89
   2   3   1 1310.95  113.19
  -2  -3  -1 1160.31   56.68
   2   3   2 1009.07   48.95
   2   3   2  829.52   70.41
  -2  -3  -2  930.01   49.85
  -2  -3  -2 1014.22   52.07
   2   3   3   96.72   23.76
   2   3   3   64.72   29.69
   2   3   3   89.16   14.17
  -2  -3  -3   72.37   13.70
   2   3   3   87.14    9.05
  -2  -3  -3  100.89   15.07
   2   3   4   40.33   17.86
   2   3   4   34.16   26.61
  -2  -3  -4   18.47   11.98
   2   3   4   20.53    7.40
  -2  -3  -4   15.26    6.62
   2   3   4   16.99    4.95
  -2  -3  -4   12.86    6.07
  -2  -3  -5  599.69   61.84
   2   3   5  664.63   41.73
   2   3   5  582.42   85.81
   2   3   5  572.73   53.91
  -2  -3  -5  614.84   44.20
   2   3   5  632.97   35.49
  -2  -3  -5  640.18   40.36
  -2  -3  -6 1240.43   56.21
   2   3   6 1067.19  118.42
   2   3   6 1209.67   60.66
   2   3   6 1281.64   72.11
  -2  -3  -6 1273.70   69.21
   2   3   6 1179.28   55.79
  -2  -3  -6 1080.46   90.91
  -2  -3  -7  145.01   23.33
   2   3   7  139.87   16.73
  -2  -3  -7  172.57   37.69
   2   3   7  164.10   20.93
   2   3   7  110.66   37.71
  -2  -3  -7  174.80   17.00
   2   3   8   -1.32    4.90
  -2  -3  -8   13.75   20.53
   2   3   8    2.58    3.19
  -2  -3  -8    6.52    5.23
   2   3   8  -10.15   14.59
   2   3   9   31.18    9.56
  -2  -3  -9   66.63   32.16
   2   3   9   47.98   24.27
   2   3   9   35.91   12.96
  -2  -3 -10  248.05   57.16
  -2  -3 -11   95.38   38.63
  -2  -4  15  -10.22    9.82
  -2  -4  14   91.17   29.51
  -2  -4  13  534.88   61.68
  -2  -4  13  529.09   50.02
  -2  -4  12  150.59   19.39
   2   4 -12  174.62   26.55
  -2  -4  12  189.47   29.76
  -2  -4  12  165.89   31.86
  -2  -4  11  196.28   23.13
   2   4 -11  179.26   31.43
  -2  -4  11  200.30   34.04
  -2  -4  11  185.16   29.65
  -2  -4  10   14.62    7.03
  -2  -4  10    8.34    6.09
   2   4 -10   -0.64    9.21
  -2  -4   9   68.46   23.87
  -2  -4   9   83.50   15.67
  -2  -4   9   57.04   16.04
   2   4  -9   73.98   24.31
   2   4  -8 1101.43   45.55
  -2  -4   8 1059.40   66.16
  -2  -4   8 1157.50   62.14
   2   4  -8 1109.60   88.57
  -2  -4   8 1186.29   97.59
   2   4  -7  336.81   29.52
  -2  -4   7  375.32   42.81
   2   4  -7  325.84   47.46
  -2  -4   7  353.44   33.02
  -2  -4   7  334.48   32.89
   2   4  -6  366.59   36.85
  -2  -4   6  381.70   47.63
  -2  -4   6  366.44   33.60
   2   4  -6  359.82   50.50
  -2  -4   6  394.02   33.43
  -2  -4   5  230.13   39.88
   2   4  -5  174.59   30.40
  -2  -4   5  249.71   24.24
   2   4  -5  244.17   41.69
  -2  -4   5  266.45   28.00
   2   4  -4  777.71   74.80
   2   4  -4  852.33   75.15
  -2  -4   4  980.50   86.22
  -2  -4   4  946.23   45.80
   2   4  -3 1022.26   85.20
  -2  -4   3 1193.46   47.69
   2   4  -3 1071.28   91.36
   2   4  -3 1129.59   52.68
  -2  -4   3 1202.86   97.25
   2   4  -2   26.97    7.35
   2   4  -2   37.57   21.65
  -2  -4   2   18.31    5.35
   2   4  -2   17.66   14.02
   2   4  -1  278.38   52.69
   2   4  -1  169.73   35.04
  -2  -4   1  152.92   21.17
  -2  -4   1  158.39   17.45
   2   4   0  530.08   74.02
  -2  -4   0  503.48   35.13
   2   4   0  412.22   53.83
  -2  -4   0  502.21   37.90
  -2  -4   0  443.65   34.62
   2   4   1 1812.59  143.73
  -2  -4  -1 1787.00  134.85
  -2  -4  -1 1810.71   74.97
   2   4   1 1606.52  110.86
   2   4   1 1771.64   51.80
  -2  -4  -1 1692.67   77.10
  -2  -4  -2  369.36   31.55
   2   4   2  360.32   50.64
  -2  -4  -2  387.74   33.56
   2   4   2  396.79   30.54
   2   4   2  449.58   73.50
   2   4   3   66.21   33.88
   2   4   3   67.24   22.68
  -2  -4  -3   74.78   14.65
   2   4   3   82.52   14.09
   2   4   3   79.22    7.62
  -2  -4  -3   57.62   13.06
  -2  -4  -4  319.62   43.29
   2   4   4  294.66   27.08
   2   4   4  385.63   69.40
  -2  -4  -4  282.21   29.64
   2   4   4  296.11   19.33
  -2  -4  -4  303.02   29.63
   2   4   4  226.16   38.69
  -2  -4  -5  867.74   51.71
   2   4   5  925.86  106.48
   2   4   5  825.43   48.35
   2   4   5  775.81   66.58
  -2  -4  -5  786.05   52.32
   2   4   5  818.86   39.80
  -2  -4  -5  807.17   75.95
   2   4   6  117.52   21.85
   2   4   6   50.96   26.33
  -2  -4  -6   60.24   22.49
  -2  -4  -6   97.48   18.76
   2   4   6   99.06   16.15
   2   4   6   86.20   13.54
  -2  -4  -6  104.31   16.46
   2   4   7    3.28    5.16
   2   4   7   14.25   17.33
  -2  -4  -7    0.82    8.37
  -2  -4  -7    7.35    7.75
   2   4   7    1.31    3.86
  -2  -4  -7    0.28    3.30
  -2  -4  -8   26.84   18.47
   2   4   8   48.23   41.07
  -2  -4  -9  376.65   68.61
   2   4   9  420.87   69.64
  -2  -4 -10  376.80   72.88
  -2  -5  15   58.51   24.35
  -2  -5  14  273.49   39.97
  -2  -5  14  239.71   43.24
  -2  -5  13  104.45   24.69
  -2  -5  13   70.86   23.33
   2   5 -13   46.38   14.48
  -2  -5  12  115.51   26.57
  -2  -5  12  103.55   25.93
   2   5 -12  182.19   31.84
  -2  -5  11   62.64   19.07
  -2  -5  11   61.88   18.96
   2   5 -11   43.06   18.49
   2   5 -10  486.20   60.09
  -2  -5  10  591.78   54.51
   2   5  -9  547.85   65.80
  -2  -5   9  467.99   65.20
  -2  -5   9  492.92   46.82
   2   5  -9  533.29   32.02
  -2  -5   9  479.58   50.16
   2   5  -8  232.36   24.66
  -2  -5   8  232.52   29.43
   2   5  -8  213.18   40.24
  -2  -5   8  210.14   36.48
   2   5  -7  467.85   42.01
  -2  -5   7  440.85   58.56
   2   5  -7  415.33   58.46
  -2  -5   7  477.10   39.84
  -2  -5   6   -0.24   13.85
  -2  -5   6   19.25    8.30
   2   5  -6   15.88   13.89
   2   5  -5 1541.37  115.27
   2   5  -5 1574.06   99.30
  -2  -5   5 1670.90  126.17
  -2  -5   5 1620.45   69.78
   2   5  -4  782.83   81.10
  -2  -5   4  837.13   42.96
   2   5  -4  813.32   44.89
  -2  -5   4  932.38   95.16
   2   5  -4  714.97   70.96
   2   5  -3  129.17   16.52
   2   5  -3  124.75   32.77
  -2  -5   3  151.08   15.11
   2   5  -3  136.09   36.17
   2   5  -2  973.08   89.35
  -2  -5   2  855.56   35.03
   2   5  -2  878.94   88.46
  -2  -5   1  111.50   14.52
   2   5  -1  120.86   36.73
  -2  -5   1  115.63   17.36
   2   5  -1  114.99   34.28
  -2  -5   1  129.13   20.92
   2   5   0 2484.42  168.02
  -2  -5   0 2472.02   94.86
  -2  -5   0 2596.13   97.61
   2   5   0 2554.87  153.09
   2   5   0 2544.46   93.45
  -2  -5   0 2511.61  104.29
   2   5   1  126.18   11.79
   2   5   1  193.48   51.91
  -2  -5  -1   76.96   31.83
  -2  -5  -1  125.81   20.83
   2   5   1  104.11   28.90
  -2  -5  -1  126.70   18.84
   2   5   2   45.54   22.68
  -2  -5  -2   28.22   25.66
  -2  -5  -2   31.40   10.20
   2   5   2   35.67   22.69
  -2  -5  -2   40.38   11.39
   2   5   3  163.33   46.56
  -2  -5  -3  110.98   18.75
  -2  -5  -3   96.68   18.10
   2   5   3  129.87   32.29
   2   5   4  482.08   77.50
   2   5   4  497.09   59.76
  -2  -5  -4  547.75   43.46
  -2  -5  -4  592.90   64.96
  -2  -5  -4  505.89   43.14
   2   5   5  369.38   69.59
  -2  -5  -5  394.63   55.71
   2   5   5  451.73   52.08
  -2  -5  -5  413.37   39.41
   2   5   5  362.42   22.27
  -2  -5  -5  484.25   40.69
   2   5   6   44.99   14.31
   2   5   6    2.55   11.52
  -2  -5  -6   24.28   18.63
  -2  -5  -6   16.74    7.63
   2   5   6   18.55    6.06
  -2  -5  -6   15.68    7.92
   2   5   7  163.47   45.96
  -2  -5  -7  200.74   45.98
   2   5   8  121.55   41.34
  -2  -5  -8  124.81   40.14
  -2  -5  -9  251.80   57.96
  -2  -6  15  115.00   27.54
  -2  -6  15   99.28   30.17
  -2  -6  14  105.60   26.69
  -2  -6  14  142.77   32.67
   2   6 -13  302.31   43.91
  -2  -6  13  283.70   42.84
  -2  -6  13  303.58   45.81
  -2  -6  12   44.88   15.38
   2   6 -12   10.10    8.06
  -2  -6  12   16.04   10.15
  -2  -6  12   32.33   17.17
  -2  -6  11   75.20   18.14
  -2  -6  11   30.64   15.08
  -2  -6  11   53.52   17.68
   2   6 -11   50.62   23.03
   2   6 -10  251.27   23.38
  -2  -6  10  293.00   42.37
  -2  -6  10  400.70   44.31
  -2  -6  10  246.47   32.49
   2   6 -10  245.72   45.79
   2   6  -9  672.34   44.23
  -2  -6   9  713.05   75.60
   2   6  -9  566.13   71.02
  -2  -6   9  585.69   51.35
  -2  -6   9  570.25   50.01
   2   6  -8  239.07   30.13
  -2  -6   8  260.98   49.16
  -2  -6   8  244.64   30.78
   2   6  -8  229.02   46.28
  -2  -6   8  281.30   34.38
   2   6  -7  192.91   30.56
  -2  -6   7  133.08   24.32
  -2  -6   7  159.93   23.68
   2   6  -7  133.93   34.66
   2   6  -6 1212.54   84.87
  -2  -6   6 1017.70   57.87
  -2  -6   6 1227.34   74.19
   2   6  -6 1116.41  103.02
   2   6  -5  454.52   54.99
  -2  -6   5  527.84   36.84
   2   6  -5  468.49   66.74
   2   6  -4  836.72   88.55
  -2  -6   4  861.81   44.81
   2   6  -4  907.92   47.15
  -2  -6   4  981.14  111.59
   2   6  -4  900.85   83.73
   2   6  -3  209.86   45.79
  -2  -6   3  293.15   62.23
   2   6  -3  162.36   38.85
  -2  -6   3  222.21   18.50
   2   6  -2  421.66   64.96
  -2  -6   2  421.61   41.68
  -2  -6   2  445.93   23.06
  -2  -6   2  434.34   36.11
   2   6  -2  397.16   62.74
   2   6  -1 2621.09  168.83
  -2  -6   1 2658.95   87.52
   2   6  -1 2658.45  165.47
  -2  -6   1 2648.36  115.31
  -2  -6   1 2682.95  104.39
   2   6  -1 2521.16  111.19
  -2  -6   0  343.09   32.29
  -2  -6   0  284.79   63.16
   2   6   0  304.20   57.68
  -2  -6   0  293.95   27.94
  -2  -6   0  282.22   33.90
   2   6   0  292.89   53.80
   2   6   0  327.23   30.03
   2   6   1   86.13   10.76
  -2  -6  -1  163.41   49.23
   2   6   1  179.18   47.05
   2   6   1  120.53   34.36
  -2  -6  -1   89.48   19.04
  -2  -6  -1  109.10   18.63
  -2  -6  -2  250.24   28.76
   2   6   2  254.69   55.26
  -2  -6  -2  268.56   62.52
   2   6   2  172.74   39.54
  -2  -6  -2  193.01   28.19
  -2  -6  -3  429.40   38.93
   2   6   3  348.80   54.83
  -2  -6  -3  429.11   42.18
   2   6   3  488.27   77.32
   2   6   4  638.38   90.48
   2   6   4  731.00   74.87
  -2  -6  -4  727.17   52.64
  -2  -6  -4  728.88   77.59
  -2  -6  -4  610.86   50.79
  -2  -6  -5  -11.65   12.26
  -2  -6  -5   11.95    9.45
  -2  -6  -5   12.81    7.60
   2   6   5   16.84   16.14
   2   6   6   41.35   27.41
   2   6   6   14.07    8.29
  -2  -6  -6   20.52   12.49
   2   6   7   66.54   30.26
  -2  -6  -7   49.63   24.61
   2   6   8  147.34   44.07
  -2  -6  -8  260.23   57.71
  -2  -7  15   41.04   20.57
  -2  -7  15   13.22   12.18
   2   7 -14  137.54   30.64
  -2  -7  14  167.85   36.03
  -2  -7  14  147.60   34.17
   2   7 -13    7.60   13.92
  -2  -7  13   12.00   12.94
  -2  -7  13    2.92    5.84
  -2  -7  12   71.41   18.92
  -2  -7  12   55.26   22.62
  -2  -7  12   47.89   17.25
   2   7 -12   78.04   27.59
   2   7 -11  168.67   20.65
  -2  -7  11  171.46   36.40
  -2  -7  11  166.46   31.00
   2   7 -11  175.65   41.43
  -2  -7  11  183.65   29.87
   2   7 -10   38.91   12.03
  -2  -7  10    9.98    5.97
   2   7 -10   12.86   17.07
  -2  -7  10   40.96   14.40
   2   7  -9  145.01   23.35
  -2  -7   9  154.88   26.49
   2   7  -9  137.57   36.07
  -2  -7   9  151.66   27.43
  -2  -7   8  306.51   61.17
   2   7  -8  192.70   30.04
  -2  -7   8  169.71   25.73
   2   7  -8  199.43   46.95
  -2  -7   8  173.76   29.07
   2   7  -7  141.56   29.48
  -2  -7   7  144.23   42.97
  -2  -7   7  142.64   22.39
   2   7  -7  115.17   37.04
  -2  -7   7  109.11   23.37
  -2  -7   6  171.23   50.56
   2   7  -6  216.27   37.99
  -2  -7   6  185.08   29.46
  -2  -7   6  188.44   24.35
   2   7  -6  177.36   45.38
   2   7  -5  885.38   84.12
   2   7  -5 1000.91   51.43
  -2  -7   5  934.31   51.23
  -2  -7   5  919.85   68.05
   2   7  -5  791.03   92.17
   2   7  -4  612.09   71.91
  -2  -7   4  879.06  114.25
   2   7  -4  660.50   37.96
   2   7  -4  700.66   85.82
  -2  -7   4  753.41   60.47
  -2  -7   4  696.11   39.33
  -2  -7   3  611.31   53.96
   2   7  -3  429.45   67.53
  -2  -7   3  470.93   28.26
  -2  -7   3  410.39   79.76
   2   7  -3  456.42   63.73
  -2  -7   3  498.89   41.57
  -2  -7   2  714.10   50.46
  -2  -7   2  930.01  121.45
   2   7  -2  779.33   87.93
   2   7  -2  643.50   82.77
  -2  -7   2  734.96   29.89
  -2  -7   2  800.59   62.20
  -2  -7   1  649.58  100.66
   2   7  -1  590.30   78.49
  -2  -7   1  621.87   47.38
  -2  -7   1  649.11   34.17
   2   7  -1  645.62   83.86
  -2  -7   1  632.92   55.05
   2   7  -1  601.95   50.26
   2   7   0  254.02   55.06
  -2  -7   0  296.75   32.33
  -2  -7   0  211.21   60.75
  -2  -7   0  241.36   24.61
  -2  -7   0  233.78   33.53
   2   7   0  335.36   59.01
   2   7   0  209.12   25.02
  -2  -7  -1 1131.46   67.31
   2   7   1 1056.23  111.83
  -2  -7  -1 1176.32   66.23
   2   7   1 1100.50  107.46
  -2  -7  -1 1140.43   75.22
   2   7   1 1122.73   46.79
  -2  -7  -2  239.67   29.85
   2   7   2  221.26   52.60
  -2  -7  -2  224.59   32.30
   2   7   2  216.02   46.40
   2   7   3  712.42   81.42
   2   7   3  984.81  110.95
  -2  -7  -3  875.09   64.73
  -2  -7  -3  866.86   59.73
  -2  -7  -4  506.55   45.51
  -2  -7  -4  422.93   44.68
   2   7   4  301.82   50.25
   2   7   4  493.53   79.89
  -2  -7  -5   11.26   15.78
   2   7   5    6.13    9.58
   2   7   5  -22.30   22.16
   2   7   6  139.60   42.95
  -2  -7  -6  188.25   46.51
   2   7   7  243.57   58.42
  -2  -7  -7  292.17   60.63
  -2  -8  15  386.04   59.97
  -2  -8  14    8.86   12.90
  -2  -8  14    7.89    7.30
   2   8 -14   19.94   13.93
  -2  -8  13   -2.51    7.51
  -2  -8  13   -8.15    8.93
  -2  -8  12   45.60   23.24
  -2  -8  12   70.05   20.65
   2   8 -12   51.62   26.61
  -2  -8  11   13.87   17.73
  -2  -8  11  -18.37   11.29
   2   8 -10  863.20   97.81
  -2  -8  10  939.03   70.36
   2   8 -10  918.03   61.86
  -2  -8  10  796.94  101.38
  -2  -8   9  188.31   30.21
   2   8  -9  192.38   47.18
  -2  -8   9  202.50   54.37
   2   8  -9  198.68   31.26
  -2  -8   8   11.67    8.36
   2   8  -8   13.57   20.94
  -2  -8   8  -12.76   18.08
   2   8  -8    3.16    8.25
   2   8  -7  397.35   50.83
  -2  -8   7  388.38   37.36
  -2  -8   7  423.84   48.11
   2   8  -7  459.63   72.94
  -2  -8   7  413.73   84.49
  -2  -8   6   87.12   21.70
   2   8  -6   87.89   15.12
  -2  -8   6   66.43   14.49
   2   8  -6   21.52   19.13
  -2  -8   6   60.68   35.90
   2   8  -6   50.12   21.72
   2   8  -5  329.61   26.74
  -2  -8   5  373.28   31.31
   2   8  -5  388.34   67.09
  -2  -8   5  328.03   42.58
  -2  -8   5  395.05   80.98
   2   8  -5  303.26   50.97
   2   8  -4   56.64   30.18
  -2  -8   4   91.85   44.50
   2   8  -4    2.00   12.51
  -2  -8   4   50.51   10.35
  -2  -8   4   49.05   16.88
   2   8  -3  155.88   43.73
  -2  -8   3  173.29   56.53
   2   8  -3  116.53   35.24
  -2  -8   3  148.61   23.79
  -2  -8   3  139.80   14.57
  -2  -8   3  143.02   28.00
   2   8  -2  897.58   98.01
   2   8  -2  947.14  106.06
  -2  -8   2 1049.46   65.75
  -2  -8   2  960.55   73.65
   2   8  -2  876.72   71.04
   2   8  -1  729.38   89.25
   2   8  -1  641.20   85.88
  -2  -8   1  803.80   66.69
   2   8  -1  729.11   57.48
  -2  -8   1  810.52   57.88
  -2  -8   0  255.69   23.06
   2   8   0  252.62   53.16
  -2  -8   0  286.88   33.56
   2   8   0  342.08   62.17
   2   8   0  270.86   29.29
  -2  -8  -1  235.41   27.47
   2   8   1  230.43   55.42
  -2  -8  -1  216.48   29.88
   2   8   1  261.70   53.93
   2   8   1  249.42   20.48
  -2  -8  -2 1099.30   70.38
   2   8   2 1080.46  116.88
   2   8   2  984.64  101.88
   2   8   3  283.63   52.45
   2   8   3  354.96   68.34
   2   8   4  158.59   37.38
   2   8   4  188.59   51.63
   2   8   5  220.05   54.90
  -2  -8  -5  319.56   60.99
   2   8   6  387.28   72.34
  -2  -8  -6  375.87   69.72
   2   8   7  357.08   69.32
  -2  -9  16  133.50   37.93
  -2  -9  15  134.79   37.34
   2   9 -14   45.00   21.40
  -2  -9  14   62.61   23.66
  -2  -9  14   57.67   26.27
   2   9 -13  237.38   49.04
  -2  -9  13  248.63   48.44
  -2  -9  13  217.26   41.73
   2   9 -12   31.85   11.02
  -2  -9  12   28.84   13.86
   2   9 -12   53.96   26.32
   2   9 -11  324.64   37.26
  -2  -9  11  329.95   43.42
   2   9 -11  247.60   52.95
  -2  -9  11  338.80   72.53
  -2  -9  10   25.05   12.89
   2   9 -10    7.28   13.68
   2   9 -10   30.42   13.17
  -2  -9   9   20.38   12.32
   2   9  -9    2.23   12.03
  -2  -9   9   26.38   28.26
   2   9  -9   11.85    5.81
  -2  -9   8   14.37    9.34
   2   9  -8   -0.83   12.65
  -2  -9   8   -0.51   22.99
   2   9  -8    0.26    6.76
   2   9  -7   40.85   11.56
  -2  -9   7   36.61   13.21
   2   9  -7    2.50   16.54
   2   9  -7   11.21    8.75
  -2  -9   7   70.76   40.80
   2   9  -6   89.17   14.12
  -2  -9   6   90.17   16.86
   2   9  -6   85.32   31.72
   2   9  -6   71.13   23.84
  -2  -9   5   61.33   13.38
   2   9  -5   40.50   20.88
   2   9  -5   66.10   25.63
   2   9  -4  158.14   35.75
  -2  -9   4  180.23   19.19
   2   9  -4  145.58   42.58
   2   9  -4  143.02   37.88
   2   9  -3   81.93   24.46
  -2  -9   3   89.63   11.13
   2   9  -3   85.13   37.02
   2   9  -3  154.68   41.07
   2   9  -2  176.71   49.87
   2   9  -2  109.76   37.58
   2   9  -2  247.64   37.94
   2   9  -1   21.56   17.39
   2   9  -1   85.13   34.18
   2   9  -1   60.51   16.79
   2   9   0   -3.96   11.88
   2   9   0   -0.28    2.27
  -2  -9  -1  250.78   24.92
   2   9   1  249.97   54.59
   2   9   1  281.99   60.49
  -2  -9  -2  584.61   47.82
   2   9   2  537.75   76.92
   2   9   2  581.11   88.91
   2   9   3  193.87   44.54
   2   9   3  210.19   54.25
  -2  -9  -4  246.58   54.82
   2   9   4  172.44   39.47
   2   9   4  114.63   40.95
   2   9   5  303.08   64.55
  -2  -9  -5  294.47   61.98
   2   9   6  458.10   80.93
  -2 -10  16  419.73   68.11
  -2 -10  15  113.34   34.36
  -2 -10  14  146.94   40.75
  -2 -10  14  106.25   29.57
   2  10 -14   48.92   21.49
  -2 -10  13  455.14   69.13
  -2 -10  13  472.98   59.25
   2  10 -13  427.11   70.81
   2  10 -12  762.68   96.26
  -2 -10  12  686.47   67.66
   2  10 -12  782.79   60.45
  -2 -10  11  143.93   29.72
   2  10 -11  143.04   43.80
   2  10 -11  163.79   28.84
  -2 -10  10   -1.92    5.42
   2  10 -10   -4.52   18.12
   2  10 -10    9.94   11.72
  -2 -10   9  148.78   26.41
   2  10  -9  205.88   51.97
   2  10  -8  303.37   31.18
  -2 -10   8  299.08   35.12
   2  10  -8  428.35   75.59
   2  10  -8  381.67   53.76
   2  10  -7  281.44   25.62
  -2 -10   7  250.05   30.65
   2  10  -7  334.73   66.41
   2  10  -7  268.46   47.07
  -2 -10   6    9.08    5.99
   2  10  -6    1.24   10.87
   2  10  -5   59.11   26.10
  -2 -10   5   20.54    7.69
   2  10  -5   70.85   31.93
   2  10  -5   -8.67   18.00
   2  10  -4    3.72    9.38
  -2 -10   4    0.50    3.27
   2  10  -4  -24.26   20.20
   2  10  -4   14.90   16.03
   2  10  -3  101.95   27.70
  -2 -10   3  102.74    9.70
   2  10  -3  152.94   48.54
   2  10  -3  105.05   37.21
   2  10  -2   -0.93    8.83
   2  10  -2   20.06   17.27
   2  10  -2    9.86   15.05
   2  10  -1    8.97   21.23
   2  10  -1   49.21   25.36
   2  10   0   65.87   30.97
   2  10   0   68.40   31.72
   2  10   1  183.35   47.45
   2  10   1  218.78   53.57
   2  10   2   72.91   35.12
   2  10   2   92.41   36.43
   2  10   3   19.79   16.43
   2  10   3    1.68   16.08
   2  10   4   51.99   28.68
   2  11 -15  314.78   60.10
   2  11 -14  332.45   62.99
  -2 -11  14  379.76   55.60
  -2 -11  14  276.05   58.18
   2  11 -13  360.16   67.45
  -2 -11  13  342.16   65.69
  -2 -11  13  465.13   58.53
   2  11 -12  289.15   39.38
   2  11 -12  282.31   62.03
  -2 -11  12  350.27   48.56
   2  11 -11  356.86   46.19
   2  11 -11  289.40   62.69
  -2 -11  11  288.51   41.89
   2  11 -10  546.77   60.95
   2  11 -10  480.14   82.22
  -2 -11  10  508.35   53.45
   2  11  -9  422.48   56.87
   2  11  -9  388.43   75.44
  -2 -11   9  469.38   47.71
   2  11  -8  699.63   77.55
  -2 -11   8  573.83   50.97
   2  11  -8  532.48   87.23
  -2 -11   7   81.08   17.18
   2  11  -7   81.61   36.69
   2  11  -7   66.81   24.91
  -2 -11   6  155.93   22.65
   2  11  -6  194.06   54.49
   2  11  -6  121.31   34.85
  -2 -11   5   33.98   10.12
   2  11  -5   27.41   23.15
   2  11  -5   27.69   19.40
   2  11  -4  273.72   48.52
  -2 -11   4  299.39   23.00
   2  11  -4  282.44   64.31
   2  11  -4  258.67   53.99
   2  11  -3   25.95   25.96
   2  11  -3   67.68   27.58
   2  11  -2   44.22   31.41
   2  11  -2   17.81   16.29
   2  11  -1   30.87   23.96
   2  11  -1   14.46   13.68
   2  11   0   -3.87   18.52
   2  11   0    0.66   14.02
   2  11   1   67.93   30.91
   2  11   1   13.70   13.35
   2  11   2   19.56   16.33
   2  11   2   83.08   37.83
   2  12 -15   43.67   23.53
   2  12 -14  229.39   55.32
   2  12 -13  189.27   51.01
  -2 -12  13  150.70   33.60
   2  12 -12  175.28   33.18
   2  12 -12  183.46   51.00
  -2 -12  12  203.59   36.67
   2  12 -11  421.03   54.58
   2  12 -11  382.48   75.48
  -2 -12  11  456.78   53.43
   2  12 -10  316.39   49.38
  -2 -12  10  185.39   32.74
   2  12 -10  181.47   53.56
   2  12  -9 1187.32  133.91
  -2 -12   9 1029.29   74.26
   2  12  -9 1134.55   99.33
  -2 -12   8  375.44   41.33
   2  12  -8  306.35   67.00
   2  12  -8  332.69   55.77
  -2 -12   7  334.76   36.32
   2  12  -7  271.03   64.27
   2  12  -7  317.34   56.65
  -2 -12   6  297.32   30.66
   2  12  -6  263.47   63.30
   2  12  -6  282.24   55.77
   2  12  -5  628.12   83.91
   2  12  -5  617.65   98.94
   2  12  -4  424.42   81.73
   2  12  -4  480.32   75.47
   2  12  -3   41.62   35.33
   2  12  -3    5.39   19.26
   2  12  -2  200.49   56.07
   2  12  -2  194.02   50.19
   2  12  -1  -28.18   22.76
   2  12  -1   69.55   32.90
   2  12   0   -7.87    9.83
   2  12   1   31.17   21.60
  -2 -13  13   97.84   29.42
  -2 -13  12   14.01   12.01
   2  13 -12  -10.70   10.19
  -2 -13  11   10.24    9.90
   2  13 -11   42.48   30.77
   2  13 -11   21.07   14.26
   2  13 -10  699.81   77.98
  -2 -13  10  530.34   56.51
   2  13 -10  706.98  104.78
  -2 -13   9  162.86   29.48
   2  13  -9  136.32   48.26
   2  13  -9  129.26   34.19
   2  13  -8  336.03   71.85
   2  13  -8  367.64   60.99
   2  13  -7  577.60   79.64
   2  13  -7  470.76   86.38
   2  13  -6  246.16   64.11
   2  13  -6  335.60   62.18
   2  13  -5  759.96   96.36
   2  13  -5  683.23  104.39
   2  13  -4   82.57   44.07
   2  13  -4  264.09   59.31
   2  13  -3  167.71   51.61
   2  13  -2   29.26   23.51
   2  14 -12   10.38    9.49
   2  14 -11   80.82   29.23
   2  14 -10   94.46   29.95
   2  14  -9   83.78   30.85
   3 -15   3  192.62   51.83
   3 -14   1   20.60   18.32
   3 -14   2  215.59   53.76
   3 -14   3  184.86   49.35
   3 -14   4  277.31   57.54
   3 -14   5  485.65   75.96
   3 -14   6  163.29   42.51
  -3  14  -6  190.88   41.36
   3 -14   7  271.15   56.22
  -3  13   2   11.21   12.23
  -3  13   1   27.80   18.91
   3 -13   0    6.79   14.65
  -3  13   0   44.20   26.51
  -3  13   0   -1.75   15.61
   3 -13   1   47.55   25.16
  -3  13  -1   26.46   18.65
  -3  13  -1   35.33   20.88
   3 -13   2   51.18   27.01
  -3  13  -2   38.19   23.85
  -3  13  -2   27.23   16.59
   3 -13   3  369.45   63.97
  -3  13  -3  357.82   63.36
  -3  13  -3  379.21   56.68
   3 -13   4   34.34   24.60
  -3  13  -4   14.54   17.54
  -3  13  -4   18.43   14.22
   3 -13   5   12.09   12.47
  -3  13  -5   -6.96   12.51
  -3  13  -5   16.41   16.48
   3 -13   6  313.18   58.01
  -3  13  -6  182.87   46.16
  -3  13  -6  367.08   54.60
   3 -13   7  315.15   59.77
  -3  13  -7  328.44   60.70
   3 -13   8  473.73   72.56
  -3  13  -8  562.93   79.48
   3 -13   9  431.26   69.88
  -3  13  -9  406.53   67.40
  -3  13 -10  127.49   37.94
  -3  13 -11  268.61   54.18
  -3  13 -12  327.42   59.55
  -3  12   4   73.98   26.52
  -3  12   3   47.28   19.29
  -3  12   3   33.83   18.38
  -3  12   2  222.05   46.23
  -3  12   2  176.37   39.13
  -3  12   1  -13.42   12.42
   3 -12  -1  -14.89   14.75
  -3  12   0   25.89   18.24
   3 -12   0   16.32   12.81
  -3  12  -1  -25.81   15.79
  -3  12  -1   17.09   15.96
   3 -12   1   32.36   21.75
  -3  12  -2    4.04   13.77
  -3  12  -2   -2.63   11.02
   3 -12   2   -4.59   14.74
  -3  12  -3   15.15   13.26
  -3  12  -3   54.10   23.75
   3 -12   3   15.59   16.25
  -3  12  -4   15.37   13.55
  -3  12  -4   10.91   17.88
   3 -12   4   43.64   23.35
  -3  12  -5   25.01   15.28
  -3  12  -5   39.18   22.34
   3 -12   5   18.36   14.96
  -3  12  -6   86.19   29.89
   3 -12   6   80.45   28.65
  -3  12  -7  201.70   44.98
   3 -12   7  158.73   40.34
  -3  12  -8   33.59   19.19
   3 -12   8   80.35   27.62
  -3  12  -9   54.35   26.96
   3 -12   9   59.84   25.10
  -3  12 -10  204.48   45.52
   3 -12  10  192.02   45.95
  -3  12 -11  131.18   35.45
   3 -12  11  157.73   43.14
  -3  12 -12  386.32   60.43
  -3  12 -13  192.20   42.01
  -3  11   6  151.30   37.25
  -3  11   5  139.61   35.75
   3 -11  -5  164.70   43.23
  -3  11   4  272.01   48.41
  -3  11   4  276.41   47.72
  -3  11   3  270.03   49.04
  -3  11   3  302.19   50.40
  -3  11   2  125.67   34.48
  -3  11   2  119.60   31.55
   3 -11  -1   21.29   16.88
  -3  11   1   40.90   20.86
  -3  11   1    7.36    7.77
  -3  11   0    7.90    8.46
   3 -11   0   56.06   23.01
   3 -11   0   27.66   13.31
  -3  11   0   38.13   16.73
  -3  11  -1  126.50   32.61
  -3  11  -1  133.67   33.78
   3 -11   1  107.91   30.22
  -3  11  -2  373.68   51.46
  -3  11  -2  347.05   57.23
   3 -11   2  396.15   58.61
  -3  11  -3   23.01   13.08
  -3  11  -3   31.13   20.37
   3 -11   3    1.89   14.71
  -3  11  -4   12.68   12.43
  -3  11  -4   -6.65   13.86
   3 -11   4   20.07   16.07
  -3  11  -5    2.56    5.35
  -3  11  -5   -0.65    6.61
  -3  11  -5   -6.83   14.77
   3 -11   5   15.03   18.15
  -3  11  -6    0.98    3.13
  -3  11  -6   12.76   16.95
   3 -11   6   10.50   13.15
  -3  11  -7   65.53   18.65
   3 -11   7   82.40   27.70
  -3  11  -7   95.19   29.76
   3 -11   8   26.65   17.83
  -3  11  -8   21.48   18.41
   3 -11   9   21.85   17.08
  -3  11  -9   19.99   14.63
   3 -11  10  138.90   37.55
  -3  11 -10  123.97   35.55
   3 -11  11  123.36   36.96
  -3  11 -11  199.34   42.01
   3 -11  12  161.06   41.63
  -3  11 -12  184.30   39.86
  -3  11 -13   24.57   15.32
  -3  10   7  233.87   42.52
  -3  10   6  246.52   42.49
  -3  10   5   46.68   19.77
   3 -10  -5   40.73   25.12
  -3  10   5   37.94   16.44
  -3  10   4  647.73   70.21
  -3  10   4  636.97   69.48
   3 -10  -4  623.65   80.50
  -3  10   3  696.57   72.43
   3 -10  -3  679.33   85.04
  -3  10   3  644.62   71.12
  -3  10   2  311.70   49.22
   3 -10  -2  411.14   53.08
   3 -10  -2  322.45   37.93
   3 -10  -2  387.27   65.52
  -3  10   2  265.59   43.84
  -3  10   1  133.61   34.18
   3 -10  -1  194.25   38.00
   3 -10  -1  122.79   24.28
   3 -10  -1  169.34   44.57
  -3  10   1  130.90   30.07
  -3  10   0  261.72   41.85
   3 -10   0  308.61   48.11
  -3  10   0  217.92   42.26
   3 -10   1 1243.77   98.13
  -3  10  -1 1272.26   94.23
  -3  10  -1 1308.10  105.23
  -3  10  -2   11.82   11.15
  -3  10  -2   23.53   15.82
   3 -10   2   32.02   16.44
  -3  10  -3  167.77   33.22
  -3  10  -3  214.11   41.56
   3 -10   3  168.98   36.86
  -3  10  -4    7.67    4.39
  -3  10  -4   10.20    9.87
  -3  10  -4   -5.35    9.50
   3 -10   4   13.38   13.77
  -3  10  -5  338.85   35.14
   3 -10   5  254.53   45.54
  -3  10  -5  289.71   48.58
   3 -10   6  597.65   70.12
  -3  10  -6  548.29   67.26
  -3  10  -6  546.10   50.56
   3 -10   7   23.36   15.43
  -3  10  -7   25.64   16.99
   3 -10   8   27.26   18.24
  -3  10  -8   21.06   16.75
   3 -10   9    6.11   13.09
  -3  10  -9  -24.44   15.10
   3 -10  10  125.97   35.05
  -3  10 -10  128.15   32.06
   3 -10  11  131.59   35.65
  -3  10 -11  136.29   33.85
  -3  10 -12   22.45   14.59
   3 -10  12  -11.53   11.56
  -3  10 -13   55.29   21.09
   3 -10  13   57.40   25.73
  -3   9   7  100.30   24.89
   3  -9  -6   19.34   14.36
  -3   9   6   11.62   10.19
  -3   9   6   29.49   15.23
   3  -9  -6   19.57   11.05
   3  -9  -6    2.19    9.69
  -3   9   5  664.43   67.15
   3  -9  -5  726.55   81.17
   3  -9  -5  803.89  105.49
  -3   9   5  548.43   60.00
  -3   9   4  503.41   57.85
   3  -9  -4  607.71   49.05
   3  -9  -4  495.23   43.48
   3  -9  -4  593.90   74.04
  -3   9   4  590.65   62.29
  -3   9   3  193.81   37.60
   3  -9  -3  171.81   26.59
  -3   9   3  219.81   38.41
   3  -9  -3  277.50   36.55
   3  -9  -3  198.04   27.86
   3  -9  -3  198.24   43.63
  -3   9   2  305.52   45.92
  -3   9   2  264.87   41.59
   3  -9  -2  234.10   30.24
   3  -9  -2  359.56   44.56
   3  -9  -2  262.82   34.49
  -3   9   2  250.29   40.09
   3  -9  -2  202.21   44.61
  -3   9   1  468.20   58.52
  -3   9   1  472.80   53.58
   3  -9  -1  523.72   41.92
   3  -9  -1  570.09   58.86
   3  -9  -1  445.04   46.77
   3  -9  -1  481.57   68.38
  -3   9   1  504.36   56.21
   3  -9   0 1298.90   92.11
  -3   9   0 1218.10   87.50
  -3   9   0 1102.12   88.36
   3  -9   0 1176.47  108.52
  -3   9   0 1360.20  100.48
  -3   9  -1   81.16   26.06
  -3   9  -1   90.88   24.45
   3  -9   1  177.83   33.36
   3  -9   1  116.26   35.15
  -3   9  -1  124.91   31.48
   3  -9   2  664.15   66.93
  -3   9  -2  621.23   59.81
  -3   9  -2  570.80   66.63
  -3   9  -2  579.55   65.33
  -3   9  -3  336.97   43.09
  -3   9  -3  377.78   32.50
   3  -9   3  298.12   45.49
  -3   9  -3  329.51   48.96
   3  -9   4  457.52   55.89
  -3   9  -4  521.20   62.20
  -3   9  -4  444.04   39.71
  -3   9  -4  533.55   54.01
   3  -9   5  820.73   76.48
  -3   9  -5  615.16   52.14
  -3   9  -5  678.56   71.10
  -3   9  -6   29.08   16.03
   3  -9   6   20.97   15.93
  -3   9  -7   50.64   20.69
   3  -9   7   79.83   25.42
  -3   9  -8   78.45   25.61
   3  -9   8   89.24   26.93
  -3   9  -9  330.66   48.45
   3  -9   9  353.70   53.75
  -3   9 -10   50.56   19.65
   3  -9  10   69.53   23.28
  -3   9 -11    9.47    7.98
   3  -9  11   21.94   13.80
   3  -9  12   11.29   14.09
   3  -9  12    4.78   10.24
  -3   9 -12   23.95   12.00
   3  -9  13   21.51   20.76
   3  -9  14  176.75   41.00
  -3   8   8   57.92   19.95
   3  -8  -7   -2.82   13.23
  -3   8   7    6.96    7.36
  -3   8   7    3.00    5.41
   3  -8  -7   -1.79    6.45
   3  -8  -7   11.22   12.79
  -3   8   6  156.82   28.90
   3  -8  -6  198.39   50.91
   3  -8  -6  206.04   39.47
  -3   8   6  202.31   34.35
   3  -8  -6  164.75   36.37
   3  -8  -5  562.30   83.59
  -3   8   5  675.30   63.56
  -3   8   5  583.71   57.97
   3  -8  -5  584.31   35.32
   3  -8  -5  802.43   97.13
   3  -8  -5  563.41   68.22
   3  -8  -5  560.88   46.25
   3  -8  -5  734.56   74.61
  -3   8   4   68.88   21.51
   3  -8  -4   10.89   14.54
   3  -8  -4   33.59   13.31
  -3   8   4   41.99   15.53
   3  -8  -4   49.66    9.40
   3  -8  -4   32.93   12.14
   3  -8  -4   38.49   11.36
   3  -8  -4   21.00   13.46
   3  -8  -3  390.78   67.13
  -3   8   3  387.51   48.40
   3  -8  -3  446.60   42.74
   3  -8  -3  397.69   40.27
   3  -8  -3  454.00   60.43
   3  -8  -3  403.51   40.79
  -3   8   3  455.72   51.37
  -3   8   2   39.77   16.74
   3  -8  -2   34.98   20.89
  -3   8   2   48.62   18.44
   3  -8  -2   36.65   12.30
   3  -8  -2   46.65   16.22
   3  -8  -2   50.82   15.20
   3  -8  -2   31.30   16.31
  -3   8   2   15.20   11.93
   3  -8  -1  451.64   70.13
   3  -8  -1  446.90   39.96
  -3   8   1  474.52   51.25
   3  -8  -1  444.97   47.61
  -3   8   1  427.18   51.33
   3  -8  -1  408.43   44.58
   3  -8  -1  444.38   60.48
  -3   8   1  511.70   54.41
  -3   8   0 1537.23  101.90
   3  -8   0 1633.21  132.48
   3  -8   0 1779.97  100.20
  -3   8   0 1525.81   93.32
   3  -8   0 1568.97  123.71
   3  -8   0 1542.12  116.89
  -3   8   0 1650.41  104.28
  -3   8  -1   99.24   25.34
   3  -8   1  111.90   35.71
  -3   8  -1   59.20   17.25
   3  -8   1  118.78   31.97
   3  -8   1  121.45   25.73
  -3   8  -1   85.87   23.67
   3  -8   1   86.09   28.77
  -3   8  -2  476.58   56.17
   3  -8   2  531.79   73.26
   3  -8   2  553.12   56.55
   3  -8   2  459.74   59.26
  -3   8  -2  537.84   51.85
  -3   8  -2  528.31   61.56
   3  -8   2  558.87   71.81
   3  -8   3  338.54   57.93
  -3   8  -3  300.44   44.33
  -3   8  -3  235.08   33.98
  -3   8  -3  290.22   30.59
   3  -8   3  261.01   44.07
   3  -8   3  252.67   38.98
  -3   8  -3  326.13   49.92
  -3   8  -4 1415.27   98.01
   3  -8   4 1365.85  118.85
   3  -8   4 1382.21   93.89
  -3   8  -4 1276.00   75.02
   3  -8   4 1461.39  102.51
  -3   8  -4 1390.42  109.81
  -3   8  -5  191.40   35.41
   3  -8   5  171.58   41.96
  -3   8  -5  208.40   31.53
   3  -8   5  194.99   34.83
  -3   8  -5   86.72   29.45
   3  -8   5  197.79   36.94
   3  -8   6  185.46   34.93
   3  -8   6  178.66   42.65
  -3   8  -6  200.06   35.61
   3  -8   6  213.64   37.32
   3  -8   7  208.41   37.67
  -3   8  -7  250.82   40.18
   3  -8   7  161.79   43.38
   3  -8   7  211.87   37.69
   3  -8   8  322.00   46.24
   3  -8   8  238.94   39.73
   3  -8   8  215.27   50.00
  -3   8  -8  312.92   44.07
  -3   8  -9  411.16   49.87
   3  -8   9  420.11   54.50
   3  -8   9  464.29   55.64
   3  -8   9  333.26   63.02
   3  -8  10   54.44   22.45
   3  -8  10   50.62   21.21
  -3   8 -10   20.76   12.35
   3  -8  11   51.11   17.84
   3  -8  11   84.63   27.41
  -3   8 -11   78.60   22.05
   3  -8  12  138.57   34.01
   3  -8  12  155.47   31.45
  -3   8 -12  162.96   29.78
   3  -8  13  230.27   44.53
   3  -8  14   51.18   20.49
   3  -7  -9  172.84   53.04
   3  -7  -8   33.57   24.63
  -3   7   8   38.37   14.04
   3  -7  -8   28.69   15.78
   3  -7  -7  235.82   55.89
  -3   7   7  230.89   32.77
  -3   7   7  219.57   33.84
   3  -7  -7  244.03   38.18
   3  -7  -6   91.86   32.99
   3  -7  -6  104.64   26.41
  -3   7   6  105.97   23.31
   3  -7  -6   85.12   31.52
  -3   7   6  112.44   22.89
   3  -7  -6   90.51   18.20
   3  -7  -6  123.33   31.70
   3  -7  -5   61.92   25.41
   3  -7  -5   49.67   20.05
  -3   7   5   75.33   19.49
   3  -7  -5   55.70   27.90
   3  -7  -5   14.29   14.41
  -3   7   5   58.44   18.30
   3  -7  -5   46.18    6.96
   3  -7  -5   58.34    9.19
   3  -7  -5   23.78    9.76
   3  -7  -5   31.89   15.73
   3  -7  -4  189.02   42.50
  -3   7   4  181.20   30.79
   3  -7  -4  200.21   50.38
  -3   7   4  189.63   31.01
   3  -7  -4  219.33   23.20
   3  -7  -4  201.09   27.09
   3  -7  -4  175.31   35.56
   3  -7  -3   26.02   18.58
  -3   7   3   44.57   15.85
  -3   7   3   42.80   15.91
   3  -7  -3   49.81   15.43
   3  -7  -3   30.54   18.01
   3  -7  -3   43.76   13.59
   3  -7  -3   43.60   12.41
   3  -7  -3   23.27   11.40
   3  -7  -2  955.06   62.28
   3  -7  -2  959.38   94.70
  -3   7   2  905.77   67.16
   3  -7  -2  848.70   57.97
   3  -7  -2  858.34   87.57
  -3   7   2  880.47   69.63
   3  -7  -2  956.92   66.46
  -3   7   2  893.53   68.31
   3  -7  -2  868.49   78.28
  -3   7   1  681.66   61.07
   3  -7  -1  685.38   76.48
   3  -7  -1  728.85   54.95
  -3   7   1  594.35   52.71
   3  -7  -1  643.20   49.05
   3  -7  -1  586.42   68.54
   3  -7  -1  600.20   65.94
  -3   7   1  589.64   55.87
   3  -7   0  160.29   37.96
  -3   7   0  133.60   28.51
  -3   7   0  104.03   21.66
   3  -7   0  113.34   19.22
   3  -7   0  139.49   31.39
   3  -7   0  139.34   24.50
   3  -7   0   39.67   22.35
  -3   7   0   94.02   23.34
  -3   7  -1  267.91   34.16
   3  -7   1  239.22   38.95
   3  -7   1  254.34   34.82
  -3   7  -1  297.05   40.49
   3  -7   1  274.64   47.08
   3  -7   1  267.04   45.33
  -3   7  -1  258.93   40.40
  -3   7  -2  357.10   44.49
  -3   7  -2  399.56   41.15
  -3   7  -2  360.84   32.77
   3  -7   2  322.15   50.22
  -3   7  -2  377.09   49.49
   3  -7   2  338.83   40.91
   3  -7   3 1123.84   96.69
  -3   7  -3  991.97   75.59
   3  -7   3  958.41   71.78
  -3   7  -3 1000.80   62.15
   3  -7   3 1093.83   80.63
  -3   7  -3 1066.62   88.18
   3  -7   4    3.86   12.94
  -3   7  -4   13.92   12.09
  -3   7  -4   10.18    7.76
   3  -7   4   15.64   13.63
   3  -7   4    2.51    8.30
  -3   7  -4    6.05    9.82
   3  -7   5  473.73   50.90
   3  -7   5  487.87   64.50
  -3   7  -5  499.39   53.22
   3  -7   5  520.42   52.28
  -3   7  -5  498.27   65.18
   3  -7   6  291.82   39.35
   3  -7   6  366.34   46.10
  -3   7  -6  306.04   41.10
   3  -7   6  321.35   53.10
  -3   7  -6  215.20   44.57
  -3   7  -7  374.68   45.25
   3  -7   7  436.76   47.74
   3  -7   7  472.55   64.43
   3  -7   7  320.78   44.11
   3  -7   8  453.06   53.12
   3  -7   8  541.75   70.77
  -3   7  -8  506.09   52.22
   3  -7   8  611.96   57.00
   3  -7   9  126.12   37.02
  -3   7  -9  137.02   26.74
   3  -7   9  172.91   30.84
   3  -7   9  204.48   35.83
   3  -7   9  198.82   33.89
   3  -7  10   40.18   24.00
   3  -7  10   82.06   20.61
   3  -7  10   59.71   18.99
   3  -7  10   50.43   19.52
  -3   7 -10   29.22   12.95
   3  -7  11   57.64   18.29
   3  -7  11   69.87   24.68
  -3   7 -11   51.07   16.37
   3  -7  12  194.91   37.96
   3  -7  13  115.10   30.40
   3  -7  14  209.82   41.08
   3  -6  -9   67.47   21.60
   3  -6  -9   59.83   32.03
   3  -6  -8   19.98   10.68
   3  -6  -8   12.30   13.31
  -3   6   8   12.25    8.07
   3  -6  -8   30.97   16.96
   3  -6  -7   -3.26   10.78
   3  -6  -7   -1.22    4.88
   3  -6  -7   -3.39   18.01
   3  -6  -7   13.02   13.14
  -3   6   7   -0.04    4.15
   3  -6  -7    7.54    6.06
   3  -6  -7    6.95    9.21
   3  -6  -6 1310.45   84.17
   3  -6  -6 1277.52  129.58
  -3   6   6 1270.53   77.20
   3  -6  -6 1079.62   97.95
  -3   6   6 1126.23   71.90
   3  -6  -6 1163.22   68.80
   3  -6  -6 1124.24   86.70
   3  -6  -6 1224.57  109.56
   3  -6  -5  656.54   59.46
  -3   6   5  631.13   53.53
   3  -6  -5  567.97   22.39
   3  -6  -5  572.55   78.56
   3  -6  -5  581.67   68.78
  -3   6   5  634.82   53.00
   3  -6  -5  581.84   24.57
   3  -6  -5  553.29   44.66
   3  -6  -5  619.58   62.77
   3  -6  -5  683.77   77.15
   3  -6  -4    1.90   11.84
  -3   6   4   20.07   10.87
   3  -6  -4    0.89   13.03
  -3   6   4    8.86    6.92
   3  -6  -4   27.63    9.93
   3  -6  -4   11.29    4.73
   3  -6  -4    3.33   10.99
  -3   6   3  590.13   50.24
   3  -6  -3  598.84   48.45
   3  -6  -3  498.39   63.62
   3  -6  -3  636.25   68.68
  -3   6   3  687.24   56.37
   3  -6  -3  661.69   41.13
   3  -6  -3  641.50   50.20
   3  -6  -3  657.16   62.98
   3  -6  -2  187.97   35.96
  -3   6   2  180.86   29.25
  -3   6   2  193.82   28.08
   3  -6  -2  222.37   28.91
   3  -6  -2  154.01   33.03
   3  -6  -2  235.84   25.98
   3  -6  -2  259.26   32.80
   3  -6  -2  198.84   34.97
  -3   6   2  228.56   32.32
   3  -6  -1  447.34   38.18
  -3   6   1  341.65   40.62
   3  -6  -1  383.43   50.69
   3  -6  -1  489.39   41.92
  -3   6   1  488.06   43.93
   3  -6  -1  483.05   53.60
   3  -6  -1  350.18   46.73
  -3   6   1  380.95   42.71
   3  -6   0  502.40   43.49
  -3   6   0  540.72   50.95
   3  -6   0  512.58   59.89
   3  -6   0  468.83   39.89
  -3   6   0  475.96   43.27
   3  -6   0  581.52   60.33
  -3   6   0  515.18   52.03
  -3   6  -1  219.30   25.10
  -3   6  -1  245.72   30.53
   3  -6   1  222.33   29.80
  -3   6  -1  250.38   34.43
   3  -6   1  205.78   36.40
  -3   6  -1  246.10   36.62
  -3   6  -2  429.93   45.37
  -3   6  -2  409.08   36.61
  -3   6  -2  369.25   46.28
   3  -6   2  394.59   41.44
  -3   6  -3  677.98   57.55
  -3   6  -3  722.93   53.49
   3  -6   3  666.45   55.02
  -3   6  -3  695.72   67.52
   3  -6   3  714.35   56.90
  -3   6  -4 1148.90   76.62
   3  -6   4 1176.25   91.07
   3  -6   4 1124.86   75.65
   3  -6   4 1272.46   76.65
  -3   6  -4 1238.52   94.63
  -3   6  -5    4.95    9.12
   3  -6   5    2.97    7.82
   3  -6   5   11.12    7.22
  -3   6  -5   10.38    9.69
   3  -6   5    8.90   10.92
   3  -6   6  389.71   40.77
   3  -6   6  400.83   45.28
  -3   6  -6  376.82   42.27
   3  -6   6  297.90   47.71
  -3   6  -6  368.47   56.45
  -3   6  -7  358.27   40.58
   3  -6   7  398.84   55.52
   3  -6   7  372.05   44.97
   3  -6   7  423.91   42.10
  -3   6  -7  311.12   52.62
  -3   6  -8   34.34   21.20
   3  -6   8   28.46   12.25
  -3   6  -8   27.16   12.61
   3  -6   8   16.62   15.18
   3  -6   8    9.12   14.39
   3  -6   8   13.06    7.90
   3  -6   9  254.28   35.57
   3  -6   9  271.62   34.60
   3  -6   9  312.14   55.80
  -3   6  -9  289.99   35.51
   3  -6   9  253.10   39.47
   3  -6   9  234.84   45.63
   3  -6  10   -0.68    5.09
   3  -6  10   14.25   14.16
  -3   6 -10    6.84    9.12
   3  -6  10    4.36    7.57
   3  -6  10    3.26    6.70
   3  -6  11  369.43   39.68
   3  -6  11  324.90   47.17
   3  -6  12  256.10   43.03
   3  -6  13   54.08   22.46
   3  -6  14   16.00   12.58
   3  -5 -10   81.48   34.91
   3  -5 -10   90.46   25.11
   3  -5  -9  -12.29   14.88
   3  -5  -9   18.40   12.80
   3  -5  -8  357.93   50.40
  -3   5   8  345.46   35.71
   3  -5  -8  372.17   70.25
   3  -5  -8  378.34   63.56
   3  -5  -8  422.30   38.60
   3  -5  -8  367.78   39.29
   3  -5  -8  389.99   49.78
   3  -5  -7  815.47  100.25
  -3   5   7  814.43   55.72
   3  -5  -7  746.44   55.80
   3  -5  -7  671.78   69.03
   3  -5  -7  685.58   51.68
   3  -5  -7  706.38   65.10
   3  -5  -7  770.97   85.75
   3  -5  -6  194.52   35.67
  -3   5   6  291.60   32.40
   3  -5  -6  309.56   56.56
   3  -5  -6  198.35   29.30
   3  -5  -6  293.01   48.52
   3  -5  -6  238.62   28.98
   3  -5  -6  254.24   37.94
   3  -5  -5   52.26   19.40
   3  -5  -5   44.84   14.92
  -3   5   5   58.70   15.58
   3  -5  -5   62.71   23.36
   3  -5  -5   53.08   23.11
  -3   5   5   71.62   16.76
   3  -5  -5   25.75   10.97
   3  -5  -5   47.01   16.51
   3  -5  -4  261.42   39.12
   3  -5  -4  280.74   35.06
  -3   5   4  269.05   30.81
   3  -5  -4  298.93   47.07
   3  -5  -4  247.90   17.78
   3  -5  -4  233.09   34.37
   3  -5  -4  222.94   27.85
  -3   5   4  297.92   33.43
  -3   5   3  386.26   38.73
   3  -5  -3  444.24   49.98
   3  -5  -3  368.99   47.14
  -3   5   3  381.60   36.67
   3  -5  -3  365.85   26.27
   3  -5  -3  396.29   37.89
   3  -5  -3  320.23   40.44
  -3   5   2 2461.96  107.83
   3  -5  -2 2349.07  119.26
   3  -5  -2 2355.68  102.53
   3  -5  -2 2345.75  117.78
  -3   5   2 2387.28  100.49
   3  -5  -2 2260.64   85.08
   3  -5  -2 2469.28  107.84
   3  -5  -2 2213.42  115.17
  -3   5   2 2281.82  106.98
   3  -5  -1  714.15   45.53
  -3   5   1  828.20   53.55
   3  -5  -1  668.67   55.91
   3  -5  -1  798.26   53.57
   3  -5  -1  749.53   63.13
  -3   5   1  674.22   54.49
  -3   5   1  767.98   56.27
   3  -5  -1  815.59   65.82
  -3   5   0  124.43   22.91
   3  -5   0  110.88   18.67
   3  -5   0  128.89   19.54
  -3   5   0  103.37   22.62
   3  -5   1 2139.92   93.98
  -3   5  -1 2183.29   91.30
  -3   5  -1 2281.59  104.29
  -3   5  -1 2272.01  112.49
   3  -5   2  372.09   36.74
  -3   5  -2  348.69   35.93
  -3   5  -2  392.95   45.15
  -3   5  -2  386.11   39.42
   3  -5   3 1143.78   68.78
  -3   5  -3 1179.95   83.27
  -3   5  -3 1107.32   69.44
  -3   5  -4   71.07   21.79
   3  -5   4   97.05   19.57
  -3   5  -4   81.49   17.93
  -3   5  -5   62.05   15.97
   3  -5   5   47.85   13.25
   3  -5   5   25.35   10.59
  -3   5  -5   63.07   22.80
  -3   5  -6 1362.61   76.57
   3  -5   6 1487.56   77.27
   3  -5   6 1241.94   78.60
  -3   5  -6 1286.27   86.98
  -3   5  -6 1259.00   98.89
   3  -5   6 1359.12   79.98
   3  -5   7   38.25   13.05
   3  -5   7   64.44   21.59
  -3   5  -7   41.32   11.92
   3  -5   7   13.16    6.61
   3  -5   7   37.44   15.05
  -3   5  -7   33.91   15.57
  -3   5  -7   12.89   13.17
   3  -5   8  454.78   42.65
   3  -5   8  470.49   49.24
   3  -5   8  476.40   63.79
  -3   5  -8  482.28   43.11
   3  -5   8  472.10   44.44
  -3   5  -8  423.47   60.86
   3  -5   9   -0.26    4.55
   3  -5   9    9.72   11.54
   3  -5   9    4.56    9.10
   3  -5   9    6.80    7.47
  -3   5  -9    7.17   12.01
   3  -5  10  196.89   26.96
   3  -5  10  200.91   28.75
   3  -5  10  197.99   33.75
   3  -5  11  113.64   18.84
   3  -5  11  148.48   30.41
   3  -5  12   -1.35    7.38
   3  -5  13   16.47   12.24
   3  -5  14    8.24   12.07
  -3   4  12  249.95   46.22
   3  -4 -11  132.13   45.25
  -3   4  11  106.99   27.87
   3  -4 -11  101.58   27.71
   3  -4 -10   -3.14    9.36
   3  -4 -10    6.22    5.84
  -3   4  10   -5.56    9.94
   3  -4  -9   -0.77   12.60
   3  -4  -9    3.41    4.99
   3  -4  -9   11.36   16.24
   3  -4  -9   11.86    9.54
  -3   4   9    3.36    7.67
   3  -4  -8  137.83   28.59
  -3   4   8  144.11   29.11
   3  -4  -8  108.82   35.50
   3  -4  -8  142.67   20.44
   3  -4  -8   88.61   31.24
   3  -4  -8  140.01   23.55
   3  -4  -8  119.61   26.01
   3  -4  -7  424.10   63.29
   3  -4  -7  535.15   42.19
   3  -4  -7  425.90   48.18
  -3   4   7  499.91   50.40
   3  -4  -7  443.16   41.01
   3  -4  -7  469.98   51.00
   3  -4  -7  477.47   63.33
   3  -4  -6    4.26    7.30
  -3   4   6   10.40    6.59
   3  -4  -6   20.79   15.15
   3  -4  -6    2.26    5.26
   3  -4  -6    9.50   11.93
   3  -4  -6   15.62    9.69
   3  -4  -6    2.18    4.99
   3  -4  -5  166.84   27.71
   3  -4  -5  191.43   26.87
  -3   4   5  206.64   24.67
   3  -4  -5  132.05   28.68
   3  -4  -5  148.10   26.62
   3  -4  -5  168.75   23.55
   3  -4  -5  216.47   36.71
  -3   4   5  191.66   24.94
   3  -4  -4  410.39   39.71
  -3   4   4  491.66   40.83
   3  -4  -4  408.41   42.21
  -3   4   4  450.04   36.77
   3  -4  -4  448.77   47.57
   3  -4  -4  429.98   20.56
   3  -4  -4  417.04   37.27
   3  -4  -4  496.31   52.34
   3  -4  -4  391.15   41.93
   3  -4  -3 1294.56   73.90
   3  -4  -3 1203.57   74.76
  -3   4   3 1399.01   72.15
  -3   4   3 1442.52   68.86
   3  -4  -3 1383.76   79.88
   3  -4  -3 1274.31   49.05
   3  -4  -3 1343.95   71.68
   3  -4  -3 1275.33   77.54
   3  -4  -2  823.85   57.15
   3  -4  -2  808.52   54.24
   3  -4  -2  823.82   55.92
   3  -4  -2  717.42   56.34
  -3   4   2  812.70   54.08
   3  -4  -2  803.93   41.02
   3  -4  -2  840.21   56.45
   3  -4  -2  869.69   62.13
  -3   4   2  886.62   58.32
   3  -4  -1   49.41   14.95
   3  -4  -1   56.03   15.51
   3  -4  -1   73.64   16.05
   3  -4  -1   60.45   14.00
  -3   4   1   70.38   16.11
   3  -4  -1   73.61   11.94
  -3   4   1   59.12   12.39
  -3   4   1   48.94   14.68
  -3   4   0 1035.80   61.06
   3  -4   0  887.35   55.52
  -3   4   0  895.82   52.45
  -3   4   0  966.56   63.16
  -3   4   0  897.18   52.15
   3  -4   0  878.56   49.48
  -3   4  -1 2277.60   97.73
  -3   4  -1 1987.96   89.17
   3  -4   1 2131.22   87.51
  -3   4  -1 2231.59   93.48
  -3   4  -1 2174.86  104.08
  -3   4  -2 1617.04   80.93
   3  -4   2 1640.87   84.52
   3  -4   2 1705.58   78.34
  -3   4  -2 1792.06   86.76
  -3   4  -2 1510.89   88.32
   3  -4   3  804.00   54.06
   3  -4   3  825.06   58.31
  -3   4  -3  896.90   67.80
  -3   4  -3  870.46   55.68
   3  -4   3  962.00   64.45
  -3   4  -4  239.14   28.40
   3  -4   4  220.10   28.60
   3  -4   4  261.89   30.69
  -3   4  -4  175.13   30.02
   3  -4   4  210.69   29.79
  -3   4  -5 2059.12  105.28
   3  -4   5 2069.90   97.74
   3  -4   5 1899.50   91.64
   3  -4   5 1992.46  100.31
  -3   4  -5 2066.66   90.58
  -3   4  -5 1985.79  115.86
  -3   4  -6  393.87   44.59
   3  -4   6  402.08   41.01
   3  -4   6  365.42   36.45
   3  -4   6  380.25   48.66
   3  -4   6  343.81   39.93
  -3   4  -6  391.89   35.53
  -3   4  -6  413.66   51.43
  -3   4  -7  632.47   59.77
   3  -4   7  646.19   54.64
   3  -4   7  678.41   49.58
   3  -4   7  660.88   57.54
   3  -4   7  672.83   67.96
  -3   4  -7  583.28   65.04
  -3   4  -8  248.89   44.90
   3  -4   8  249.41   42.79
   3  -4   8  227.53   27.63
   3  -4   8  212.06   31.70
  -3   4  -8  197.67   34.60
   3  -4   8  262.81   36.52
   3  -4   9    1.64    8.97
   3  -4   9    2.36    3.97
   3  -4   9   15.37    9.86
   3  -4   9   22.17   12.09
  -3   4  -9   19.86   12.76
   3  -4  10  322.82   42.56
   3  -4  10  322.23   42.07
   3  -4  10  377.44   36.93
  -3   4 -10  260.86   48.93
   3  -4  10  350.02   31.13
   3  -4  11  143.87   29.47
   3  -4  12   -1.44    7.74
   3  -4  13    0.36    8.64
   3  -4  13    0.12    5.96
  -3   3  13  305.97   51.75
   3  -3 -12  144.47   46.43
   3  -3 -12  187.07   39.43
  -3   3  12  131.60   33.32
   3  -3 -11   72.26   33.48
   3  -3 -11   60.98   21.92
  -3   3  11   36.17   17.06
  -3   3  10    1.15    7.00
   3  -3 -10    2.04    8.22
   3  -3  -9   56.83   18.19
   3  -3  -9   68.39   21.71
   3  -3  -9   73.29   28.31
   3  -3  -9   47.14   15.10
  -3   3   9   45.67   17.64
   3  -3  -9   59.07   10.49
   3  -3  -8  738.03   79.17
   3  -3  -8  884.48   70.95
   3  -3  -8  789.37   57.93
   3  -3  -8  789.63   84.29
  -3   3   8  817.77   67.28
   3  -3  -8  725.88   55.30
   3  -3  -8  806.83   46.25
   3  -3  -7   39.84   10.87
   3  -3  -7   59.47   19.84
  -3   3   7   50.45   16.62
   3  -3  -7   36.56   15.77
   3  -3  -7   59.40   21.16
   3  -3  -7   42.59   12.26
   3  -3  -7   54.22   14.79
   3  -3  -6  154.71   21.27
   3  -3  -6  153.29   28.22
  -3   3   6  134.24   24.92
   3  -3  -6  142.36   25.53
   3  -3  -6  130.82   30.22
   3  -3  -6  111.40   18.90
   3  -3  -6  135.75   22.23
   3  -3  -5    4.59    4.69
   3  -3  -5    6.36    8.87
   3  -3  -5    5.04    6.95
   3  -3  -5   -6.97    7.17
   3  -3  -5    3.03    3.44
   3  -3  -5    1.88    4.30
   3  -3  -4  359.40   35.34
   3  -3  -4  385.72   36.63
   3  -3  -4  441.96   37.65
   3  -3  -4  383.97   16.98
   3  -3  -4  389.31   34.92
   3  -3  -4  406.22   39.52
   3  -3  -4  417.91   43.98
   3  -3  -3 1353.05   67.93
   3  -3  -3 1489.19   74.64
  -3   3   3 1667.67   74.06
   3  -3  -3 1547.27   75.07
   3  -3  -3 1370.47   47.93
  -3   3   3 1237.28   49.76
   3  -3  -3 1562.31   74.86
   3  -3  -3 1512.03   79.08
   3  -3  -2  486.28   40.43
  -3   3   2  476.32   37.66
   3  -3  -2  516.75   41.46
   3  -3  -2  459.43   27.55
  -3   3   2  432.36   28.64
   3  -3  -2  525.52   41.77
   3  -3  -2  449.20   38.83
   3  -3  -2  439.67   34.49
  -3   3   1 1631.23   74.80
   3  -3  -1 1685.87   79.33
  -3   3   1 1411.37   62.25
   3  -3  -1 1503.29   60.52
   3  -3  -1 1539.34   68.28
   3  -3  -1 1574.35   76.57
  -3   3   1 1609.42   77.39
  -3   3   0 1889.26   81.71
   3  -3   0 1820.54   84.96
  -3   3   0 1867.96   76.30
   3  -3   0 1831.72   72.37
   3  -3   0 1800.00   83.52
  -3   3   0 1909.60   81.75
  -3   3   0 1769.50   85.11
  -3   3  -1  209.09   25.03
   3  -3   1  242.79   28.52
  -3   3  -1  218.16   24.81
   3  -3   1  237.17   24.49
  -3   3  -1  174.68   24.08
  -3   3  -1  197.86   26.99
   3  -3   2  786.19   48.39
   3  -3   2  707.53   57.24
  -3   3  -2  888.20   60.33
   3  -3   2  795.16   52.17
  -3   3  -2  825.71   50.45
   3  -3   2  778.37   51.72
   3  -3   3  910.14   54.82
  -3   3  -3  897.67   63.75
   3  -3   3  976.29   71.92
   3  -3   3  884.55   56.07
  -3   3  -3  949.98   54.16
   3  -3   3  873.50   55.69
   3  -3   4 2032.02   92.19
  -3   3  -4 2118.87  107.82
   3  -3   4 2180.41   95.41
  -3   3  -4 2319.36   90.86
   3  -3   4 2197.23   92.80
  -3   3  -5 2009.90  100.05
   3  -3   5 2091.16   94.43
  -3   3  -5 1738.34  101.85
   3  -3   5 2064.85   92.26
   3  -3   5 2082.50  105.51
   3  -3   5 1971.92   86.54
   3  -3   6 1319.68   75.00
  -3   3  -6 1331.02   82.07
  -3   3  -6 1299.42   89.14
   3  -3   6 1318.91   66.75
   3  -3   6 1321.91   72.81
   3  -3   6 1168.20   81.83
   3  -3   7   43.84   11.28
   3  -3   7   47.34   17.16
  -3   3  -7   59.43   22.53
   3  -3   7   48.62   14.25
  -3   3  -7   61.38   17.63
   3  -3   7   56.82   14.77
   3  -3   8  402.04   41.88
  -3   3  -8  416.17   48.71
   3  -3   8  326.05   46.66
   3  -3   8  369.12   38.86
   3  -3   8  408.58   33.31
  -3   3  -8  424.80   54.67
  -3   3  -9 1203.76   89.04
   3  -3   9 1326.62   82.47
   3  -3   9 1356.91   79.46
   3  -3   9 1500.12   64.22
   3  -3   9 1431.50  105.28
  -3   3  -9 1229.66   99.44
   3  -3  10  261.67   36.61
  -3   3 -10  192.37   39.87
   3  -3  10  260.40   19.98
   3  -3  11   85.59   31.39
   3  -3  11  102.48   24.12
   3  -3  12   65.46   18.73
   3  -3  12   27.07   13.41
   3  -3  13  169.58   32.16
   3  -3  13  173.65   35.25
  -3   2  14  346.42   57.54
  -3   2  13  241.70   45.48
  -3   2  12   97.62   27.74
   3  -2 -12  113.37   41.09
  -3   2  11   89.34   25.60
   3  -2 -11  105.86   36.69
   3  -2 -10   53.43   23.63
   3  -2 -10   38.74    5.69
  -3   2  10   55.98   20.46
   3  -2 -10   70.85   13.00
   3  -2  -9  774.32   60.41
   3  -2  -9  799.36   51.35
   3  -2  -9 1000.81   99.13
  -3   2   9  852.49   70.21
   3  -2  -9  944.06   43.16
   3  -2  -8   48.83   17.69
   3  -2  -8   57.86   11.16
   3  -2  -8   60.36   23.34
  -3   2   8   43.27   15.13
   3  -2  -8   52.64   14.81
   3  -2  -8   49.46   12.74
   3  -2  -7   37.52   14.69
   3  -2  -7   60.65   11.98
   3  -2  -7   55.00   20.87
  -3   2   7   58.88   17.10
   3  -2  -7   80.24   17.55
   3  -2  -7   74.11   14.65
   3  -2  -6    2.45    7.83
   3  -2  -6    3.59    9.39
   3  -2  -6   10.15    6.08
  -3   2   6    0.24    4.99
   3  -2  -6    7.96    6.11
   3  -2  -6    7.77    6.47
   3  -2  -5  524.12   37.52
   3  -2  -5  405.93   33.88
   3  -2  -5  508.49   38.14
   3  -2  -5  453.78   37.49
   3  -2  -5  417.55   46.25
   3  -2  -4  118.83   18.00
   3  -2  -4  112.42    8.63
   3  -2  -4   94.09   14.62
  -3   2   4   92.08    9.32
   3  -2  -4   96.79   16.26
   3  -2  -4   97.27   16.81
   3  -2  -4  104.70   20.61
   3  -2  -3  446.68   30.56
   3  -2  -3  415.59   33.84
   3  -2  -3  384.47   33.02
  -3   2   3  382.64   23.07
   3  -2  -3  393.21   21.13
   3  -2  -3  414.76   35.20
   3  -2  -3  449.48   38.65
   3  -2  -2  526.52   41.89
   3  -2  -2  548.02   39.19
   3  -2  -2  591.84   41.67
  -3   2   2  536.43   41.41
  -3   2   2  544.79   30.73
   3  -2  -2  593.24   29.72
   3  -2  -2  495.84   39.33
   3  -2  -2  575.70   38.47
   3  -2  -1  996.31   53.87
   3  -2  -1  949.32   54.72
  -3   2   1  922.21   55.75
  -3   2   1 1017.64   55.26
   3  -2  -1 1049.94   59.66
  -3   2   1  990.39   55.84
  -3   2   1  969.14   46.28
   3  -2  -1 1014.81   44.85
   3  -2   0 1696.67   76.76
   3  -2   0 1747.12   67.39
  -3   2   0 1680.74   69.00
   3  -2   0 1651.09   79.47
  -3   2   0 1747.23   79.41
   3  -2   0 1720.21   79.89
  -3   2   0 1697.25   76.16
   3  -2   1  343.38   30.29
  -3   2  -1  362.39   33.42
   3  -2   1  366.93   32.11
   3  -2   1  341.29   28.16
  -3   2  -1  384.86   36.70
   3  -2   1  320.64   32.99
  -3   2  -1  328.29   31.85
   3  -2   2  669.19   42.00
   3  -2   2  645.24   49.83
  -3   2  -2  553.35   43.52
   3  -2   2  610.10   41.87
  -3   2  -2  606.24   44.38
   3  -2   2  676.01   44.34
   3  -2   3 1133.90   59.62
   3  -2   3 1121.94   72.14
  -3   2  -3 1081.55   65.57
   3  -2   3 1091.38   58.22
   3  -2   3 1151.67   59.03
   3  -2   3 1077.71   57.25
   3  -2   4  116.90   18.06
   3  -2   4  108.44   19.02
  -3   2  -4  121.26   21.59
   3  -2   4  110.42   18.75
  -3   2  -4  106.38   19.86
   3  -2   4  108.65   17.19
   3  -2   5  624.50   46.61
  -3   2  -5  590.81   49.28
   3  -2   5  714.73   45.89
   3  -2   5  620.60   50.18
   3  -2   5  611.36   41.46
  -3   2  -5  581.27   51.65
  -3   2  -6  511.97   47.80
   3  -2   6  602.72   46.92
   3  -2   6  542.88   40.30
   3  -2   6  580.53   38.56
   3  -2   6  549.32   50.84
  -3   2  -6  552.61   52.91
   3  -2   7 1226.08   72.05
  -3   2  -7 1180.30   78.05
   3  -2   7 1218.51   63.15
   3  -2   7 1133.35   55.50
  -3   2  -7 1179.43   82.50
   3  -2   7 1131.75   81.11
   3  -2   8  979.51   56.97
   3  -2   8  942.53   78.87
  -3   2  -8  993.74   78.75
   3  -2   8 1036.04   48.84
   3  -2   8  985.56   66.14
  -3   2  -8 1048.01   76.73
   3  -2   9  512.58   38.48
  -3   2  -9  472.77   53.28
   3  -2   9  456.44   45.46
  -3   2  -9  505.11   57.81
   3  -2   9  486.56   59.11
   3  -2   9  502.77   27.23
   3  -2  10  475.25   72.89
  -3   2 -10  448.81   57.81
   3  -2  10  550.84   51.51
   3  -2  11  245.90   35.34
   3  -2  11  227.20   53.46
   3  -2  11  296.50   41.49
   3  -2  12  263.99   40.09
   3  -2  12  315.02   40.60
   3  -2  13  101.48   26.20
  -3   1  14  595.07   75.14
   3  -1 -13  308.40   70.00
  -3   1  13  349.90   54.08
   3  -1 -12  330.92   68.21
  -3   1  12  285.07   46.10
   3  -1 -11  304.95   60.94
  -3   1  11  317.70   46.20
   3  -1 -10  601.82   81.16
   3  -1 -10  708.07   39.13
   3  -1 -10  705.19   29.90
  -3   1  10  724.33   66.14
   3  -1  -9 1558.60   66.99
   3  -1  -9 1450.10  119.06
  -3   1   9 1517.41   93.96
   3  -1  -9 1653.74   90.73
   3  -1  -9 1540.88   59.23
   3  -1  -8  194.33   21.58
   3  -1  -8  161.03   36.45
   3  -1  -8  170.17   18.39
  -3   1   8  152.85   27.34
   3  -1  -8  189.40   26.98
   3  -1  -8  200.35   27.85
  -3   1   7  110.15   25.42
   3  -1  -7   89.30   26.53
   3  -1  -7   96.29   15.19
   3  -1  -7  108.80   17.03
  -3   1   7  107.13   21.52
   3  -1  -7  109.88   19.56
   3  -1  -7  120.15   16.06
  -3   1   6  245.21   34.96
   3  -1  -6  220.80   37.10
   3  -1  -6  216.57   23.46
   3  -1  -6  217.53   21.17
   3  -1  -6  193.55   24.64
  -3   1   6  206.24   28.05
   3  -1  -6  226.04   22.47
  -3   1   6  190.45   22.96
  -3   1   5  614.06   42.71
   3  -1  -5  681.59   41.43
   3  -1  -5  699.45   36.09
   3  -1  -5  691.92   42.78
   3  -1  -5  785.34   60.93
  -3   1   5  624.51   25.27
   3  -1  -5  640.40   44.08
  -3   1   5  663.04   53.38
   3  -1  -4  106.86   13.17
   3  -1  -4  108.97    9.66
  -3   1   4  106.59   10.35
  -3   1   4  122.08   18.86
   3  -1  -4  111.23   16.67
   3  -1  -4  125.78   18.50
   3  -1  -4  119.22   21.65
   3  -1  -4  137.64   18.21
  -3   1   4  148.75   22.48
  -3   1   3   25.52    6.39
   3  -1  -3   29.77    6.02
  -3   1   3   24.19    9.15
   3  -1  -3   30.19    9.38
   3  -1  -3   24.32    9.06
   3  -1  -3   34.22   10.06
   3  -1  -2   14.59    7.36
   3  -1  -2    4.53    4.73
  -3   1   2    7.47    5.92
   3  -1  -2    1.92    5.46
   3  -1  -2    2.37    5.54
   3  -1  -2    6.21    4.29
  -3   1   2    3.66    3.29
   3  -1  -1  258.92   25.24
  -3   1   1  239.16   26.00
   3  -1  -1  221.07   24.26
   3  -1  -1  234.25   16.90
   3  -1  -1  258.17   20.56
  -3   1   1  211.39   19.18
  -3   1   0  108.80   16.85
   3  -1   0  151.98   19.70
  -3   1   0  123.16   19.80
  -3   1   0  114.62   16.66
   3  -1   0  127.82   18.36
  -3   1   0  134.77   16.29
   3  -1   0  132.23   16.02
  -3   1  -1  693.53   44.02
   3  -1   1  710.17   43.58
   3  -1   1  646.05   38.91
  -3   1  -1  703.47   51.50
   3  -1   1  687.75   45.14
  -3   1  -1  675.05   41.81
   3  -1   2  579.14   38.37
  -3   1  -2  583.16   39.64
   3  -1   2  643.05   45.72
   3  -1   2  535.74   29.34
   3  -1   2  597.84   38.28
   3  -1   2  551.35   37.58
  -3   1  -2  492.43   37.27
   3  -1   3  384.51   32.53
  -3   1  -3  367.47   33.24
   3  -1   3  370.96   37.11
  -3   1  -3  340.63   31.81
   3  -1   3  400.95   30.19
   3  -1   3  342.87   29.49
  -3   1  -3  410.22   33.86
   3  -1   3  364.75   30.16
  -3   1  -4  700.13   50.13
   3  -1   4  786.70   49.77
  -3   1  -4  759.45   50.26
   3  -1   4  741.48   49.34
   3  -1   4  847.63   45.82
  -3   1  -4  756.70   46.96
   3  -1   4  700.52   43.42
   3  -1   5  141.43   23.28
   3  -1   5  121.84   17.18
  -3   1  -5  123.69   20.93
   3  -1   5  147.69   21.92
  -3   1  -5  137.87   23.31
   3  -1   5  137.57   17.53
   3  -1   6  371.85   30.04
   3  -1   6  347.96   40.80
  -3   1  -6  341.30   37.09
   3  -1   6  382.63   28.69
  -3   1  -6  365.24   39.17
   3  -1   6  411.37   37.79
   3  -1   7  410.89   31.19
   3  -1   7  407.88   38.82
  -3   1  -7  382.43   42.46
   3  -1   7  419.03   47.88
  -3   1  -7  403.17   42.52
   3  -1   7  462.65   29.48
  -3   1  -8  125.23   24.08
   3  -1   8  146.82   39.88
   3  -1   8   98.69   19.93
   3  -1   8  105.79   14.86
   3  -1   8  109.63   12.28
  -3   1  -8  109.32   24.31
   3  -1   8  110.30   26.49
  -3   1  -9  939.35   74.97
   3  -1   9  966.48   66.10
   3  -1   9 1068.80  110.73
  -3   1  -9  936.86   73.06
   3  -1  10  114.68   22.25
   3  -1  10  151.32   48.67
   3  -1  10  111.71   24.01
   3  -1  11  199.94   30.31
   3  -1  11  277.76   38.25
   3  -1  12  780.61   68.53
   3  -1  13  233.05   38.57
  -3   0  14  311.28   52.92
  -3   0  13  148.77   34.97
  -3   0  12   86.81   25.16
  -3   0  11  953.59   78.74
   3   0 -11  803.71   98.21
  -3   0  10 1369.86   90.76
   3   0 -10 1395.53   57.54
   3   0 -10 1299.35  117.99
  -3   0   9  436.68   17.90
   3   0  -9  478.11   32.66
   3   0  -9  515.31   68.22
  -3   0   9  387.45   18.49
  -3   0   9  437.23   47.02
   3   0  -9  445.80   28.99
  -3   0   8  652.96   41.89
  -3   0   8  618.12   63.80
  -3   0   8  585.04   24.49
   3   0  -8  610.13   69.70
   3   0  -8  604.13   38.75
  -3   0   8  559.86   27.37
   3   0  -8  735.65   53.45
  -3   0   8  651.13   54.39
   3   0  -8  653.47   37.61
   3   0  -7  705.49   40.42
   3   0  -7  645.18   32.33
  -3   0   7  687.87   28.24
  -3   0   7  662.15   42.87
   3   0  -7  757.16   72.30
   3   0  -7  765.02   51.55
  -3   0   7  718.19   54.29
  -3   0   7  715.05   64.87
   3   0  -6 3764.59  117.07
   3   0  -6 3456.91   99.13
  -3   0   6 3670.16   96.39
  -3   0   6 3858.83  154.19
   3   0  -6 3925.89  164.83
   3   0  -6 3635.06  128.65
  -3   0   6 3539.92  120.42
  -3   0   5 1702.98   73.35
  -3   0   5 1714.72   88.79
  -3   0   5 1751.02   56.10
   3   0  -5 1736.55   94.78
   3   0  -5 1699.14   76.18
   3   0  -5 1748.76   71.27
  -3   0   4  498.39   40.10
   3   0  -4  497.60   25.06
   3   0  -4  512.64   43.53
   3   0  -4  495.85   36.25
  -3   0   4  546.14   37.43
   3   0  -4  519.03   35.67
  -3   0   4  490.36   26.10
  -3   0   3  103.86   16.15
   3   0  -3   70.48   15.56
   3   0  -3   71.52   10.15
  -3   0   3   59.89    9.82
   3   0  -3   81.95   14.79
   3   0  -3   81.82   14.63
  -3   0   3   56.61   12.74
   3   0  -2  859.05   38.94
  -3   0   2  868.64   40.43
  -3   0   2  892.79   49.11
   3   0  -2  893.26   48.01
   3   0  -2  829.46   46.80
  -3   0   2  897.21   40.15
  -3   0   1  100.44   17.57
   3   0  -1  132.41   18.48
  -3   0   1  106.74    8.34
   3   0  -1  127.40   17.55
   3   0  -1   95.31   12.91
  -3   0   1  109.91   14.23
  -3   0   0  131.04   22.24
   3   0   0   95.92   14.16
  -3   0   0   83.77   15.04
   3   0   0   86.88   15.14
   3   0   0  102.35   16.02
   3   0   1  997.27   49.04
  -3   0  -1  934.00   35.46
   3   0   1  911.76   49.30
  -3   0  -1 1043.20   53.10
   3   0   1  931.32   48.07
  -3   0  -1  940.05   45.30
   3   0   2  207.88   23.43
  -3   0  -2  231.16   20.97
   3   0   2  196.92   21.74
  -3   0  -2  202.38   20.13
  -3   0  -2  190.04   22.11
   3   0   2  205.34   21.66
  -3   0  -3  378.78   28.38
  -3   0  -3  335.97   31.62
   3   0   3  404.41   33.10
  -3   0  -3  407.75   35.19
  -3   0  -3  378.06   31.70
   3   0   3  348.45   28.88
  -3   0  -4    8.04    7.90
  -3   0  -4    6.02    5.15
   3   0   4   13.74    6.53
  -3   0  -4   15.95    7.06
   3   0   4    8.89    5.26
  -3   0  -4    6.39    7.06
   3   0   5    1.39    3.46
  -3   0  -5    2.78    5.11
   3   0   5   -4.26    5.94
  -3   0  -5   -1.26    5.32
  -3   0  -5    6.63    6.78
   3   0   5    0.18    2.63
  -3   0  -6   21.52    9.11
   3   0   6   32.74   22.69
  -3   0  -6   22.89   11.19
   3   0   6   37.41    9.60
   3   0   6   30.51   11.09
  -3   0  -6   38.45   13.34
  -3   0  -6   38.40   10.31
   3   0   6   19.77    6.56
   3   0   7   14.29    4.93
  -3   0  -7   13.47    7.21
   3   0   7   51.03   32.68
   3   0   7   10.90    6.77
   3   0   7   32.14    8.14
  -3   0  -7   10.16    6.88
  -3   0  -7    6.06    8.90
  -3   0  -8  755.48   82.07
   3   0   8  756.84   34.97
   3   0   8  715.92   42.62
  -3   0  -8  831.52   65.45
   3   0   8  839.39   57.66
   3   0   8  941.85  106.78
  -3   0  -8  726.20   53.33
  -3   0  -9   48.80   17.24
   3   0   9   45.02   14.54
  -3   0  -9   99.62   20.88
   3   0   9   56.19   15.92
   3   0  10  205.44   29.32
   3   0  10  205.74   53.49
   3   0  10  178.90   29.03
   3   0  11  250.51   35.98
   3   0  11  234.71   32.07
   3   0  12   30.50   15.54
  -3  -1  14    0.78   10.37
  -3  -1  13   33.77   17.63
  -3  -1  12  432.86   54.60
  -3  -1  11  616.22   33.29
   3   1 -11  674.57   35.16
   3   1 -11  678.57   48.37
  -3  -1  11  659.13   63.89
  -3  -1  11  597.53   29.13
  -3  -1  10  997.41   41.18
   3   1 -10  925.71   68.15
   3   1 -10 1022.68   50.25
  -3  -1  10 1026.17   48.05
  -3  -1  10 1036.46   76.77
  -3  -1  10 1115.46   54.86
   3   1  -9  163.65   18.29
  -3  -1   9  139.25   13.91
  -3  -1   9  143.09   32.94
  -3  -1   9  133.02   16.39
  -3  -1   9  175.36   28.71
  -3  -1   9  180.59   21.45
  -3  -1   8  645.95   32.27
  -3  -1   8  671.93   66.82
  -3  -1   8  672.64   43.32
   3   1  -8  757.00   54.91
  -3  -1   8  755.62   57.10
   3   1  -8  724.13   40.92
   3   1  -7 3481.81  114.34
   3   1  -7 3581.35   88.27
   3   1  -7 3422.86  111.56
  -3  -1   7 3496.63   99.72
  -3  -1   7 3557.36  157.10
   3   1  -7 3572.11  129.26
  -3  -1   7 3319.45  116.59
   3   1  -6 2120.41   81.31
  -3  -1   6 2308.79  112.83
  -3  -1   6 2047.52   68.18
   3   1  -6 1995.92   87.12
  -3  -1   6 2080.71   83.52
   3   1  -5 2748.75   95.26
  -3  -1   5 2536.30   80.54
  -3  -1   5 2629.54  115.93
   3   1  -5 2630.94   98.01
  -3  -1   5 2550.47   95.67
  -3  -1   4   15.63    7.71
  -3  -1   4   12.38    5.39
   3   1  -4   30.17    9.39
  -3  -1   4   25.22    8.56
   3   1  -4   20.50    8.00
   3   1  -3 5718.07  173.14
   3   1  -3 5514.25  146.13
  -3  -1   3 5576.90  148.36
  -3  -1   3 5249.00  160.42
  -3  -1   3 5442.52  163.89
  -3  -1   3 5521.83  163.76
   3   1  -3 5424.22  156.94
   3   1  -3 5430.75  159.63
   3   1  -2 5967.37  154.41
  -3  -1   2 5692.36  155.52
   3   1  -2 5598.29  175.22
  -3  -1   2 5862.55  171.61
   3   1  -2 5543.02  159.06
   3   1  -2 5647.13  164.37
   3   1  -1  698.02   37.56
   3   1  -1  653.36   46.38
  -3  -1   1  680.44   45.11
  -3  -1   1  699.99   43.21
   3   1  -1  661.09   38.01
   3   1  -1  739.65   43.18
  -3  -1   0 1122.05   57.44
  -3  -1   0 1122.30   64.78
   3   1   0 1281.00   53.16
   3   1   0 1164.21   56.44
   3   1   0 1240.02   54.44
   3   1   1  371.06   25.77
  -3  -1  -1  427.80   26.61
   3   1   1  386.70   29.46
  -3  -1  -1  396.45   32.33
   3   1   1  383.02   29.98
  -3  -1  -2 1092.07   54.83
   3   1   2 1057.82   48.56
   3   1   2 1154.10   56.05
  -3  -1  -2 1030.43   55.35
  -3  -1  -2 1125.00   57.01
   3   1   2 1101.55   54.38
  -3  -1  -3   95.88   17.40
  -3  -1  -3  119.35   19.53
   3   1   3   79.54   15.04
   3   1   3  107.32   15.55
  -3  -1  -3  111.10   17.18
  -3  -1  -3   94.14   10.59
   3   1   4   72.63   29.18
  -3  -1  -4   17.23    9.61
  -3  -1  -4   42.86   11.66
   3   1   4   33.39    9.46
  -3  -1  -4   35.99    6.72
   3   1   4   21.80    8.31
  -3  -1  -4   39.12   11.23
   3   1   5   81.49   31.76
  -3  -1  -5   52.52   14.56
   3   1   5   56.06   12.64
   3   1   5   46.92   10.47
  -3  -1  -5   44.99   11.20
  -3  -1  -5   36.46    7.62
  -3  -1  -6  142.46   15.37
   3   1   6  151.39   43.03
  -3  -1  -6  165.10   32.99
   3   1   6  169.20   18.94
   3   1   6  151.45   22.01
  -3  -1  -6  160.32   25.34
   3   1   6  152.49   17.33
  -3  -1  -6  143.82   18.91
  -3  -1  -7   61.12   11.77
  -3  -1  -7   33.24    7.63
   3   1   7   32.40   24.40
   3   1   7   40.81    8.65
  -3  -1  -7   64.36   25.29
   3   1   7   60.16   14.77
  -3  -1  -7   54.35   15.78
   3   1   7   47.49   14.85
  -3  -1  -8   14.76    6.34
  -3  -1  -8    2.81    9.32
   3   1   8    5.32    6.70
   3   1   8   14.31    8.02
  -3  -1  -8   39.27   14.09
   3   1   8   19.92    5.70
   3   1   8   17.27    4.06
   3   1   9    6.98    6.08
  -3  -1  -9    2.42    9.70
   3   1   9    0.47    3.67
   3   1   9   -6.87   22.69
   3   1  10   13.13    9.69
   3   1  10    6.10    6.00
   3   1  10    3.47   15.36
  -3  -1 -10   34.54   25.19
   3   1  11  177.66   30.29
  -3  -2  15   -5.45    9.33
  -3  -2  14   55.80   20.96
  -3  -2  13   54.53   22.55
  -3  -2  12   25.83   14.42
  -3  -2  12   85.46   15.11
   3   2 -12   92.58   18.01
   3   2 -11  259.88   36.50
  -3  -2  11  256.17   27.49
  -3  -2  11  318.44   43.30
  -3  -2  11  266.89   22.85
  -3  -2  11  285.66   27.16
   3   2 -10   15.00   12.75
  -3  -2  10   15.67    6.74
  -3  -2  10    0.23    5.23
  -3  -2  10   -3.12    7.86
  -3  -2   9   44.43   20.15
  -3  -2   9   56.21   16.72
  -3  -2   9   27.73    8.38
  -3  -2   8 2136.20   76.79
   3   2  -8 2329.62   87.68
  -3  -2   8 2061.23  125.96
  -3  -2   8 2290.07  105.79
  -3  -2   8 2250.77   91.64
  -3  -2   7 1048.29   57.99
  -3  -2   7 1000.93   46.93
   3   2  -7 1147.60   64.22
  -3  -2   7 1149.23   84.74
   3   2  -7 1111.26   63.57
   3   2  -7 1069.47   55.10
  -3  -2   6  657.31   43.96
   3   2  -6  570.58   52.04
  -3  -2   6  694.10   61.04
  -3  -2   6  629.87   35.26
   3   2  -6  668.87   45.32
   3   2  -6  630.51   40.86
   3   2  -5  766.71   62.33
  -3  -2   5  743.09   59.96
   3   2  -5  923.76   50.99
  -3  -2   5  852.77   42.32
   3   2  -5  897.83   49.73
  -3  -2   5  934.62   52.83
  -3  -2   4 2195.90   76.97
  -3  -2   4 2104.72   85.88
   3   2  -4 2155.31   81.35
   3   2  -4 2232.03   85.76
  -3  -2   4 2161.50   87.96
   3   2  -4 2308.13  116.89
  -3  -2   3 9956.29  244.12
   3   2  -3 9438.00  240.20
   3   2  -3 9814.29  243.78
  -3  -2   3 9999.00  252.07
   3   2  -3 9208.84  251.02
   3   2  -3 9627.61  310.01
   3   2  -3 9542.84  262.28
   3   2  -2 1415.15   58.69
  -3  -2   2 1264.45   58.03
   3   2  -2 1497.50   57.74
   3   2  -2 1433.43   65.20
   3   2  -2 1475.99  100.16
  -3  -2   2 1371.17   65.98
   3   2  -2 1457.46   71.48
   3   2  -1 1944.99   73.69
   3   2  -1 1937.23   68.67
   3   2  -1 2041.96  124.34
  -3  -2   1 1885.24   82.67
   3   2  -1 1849.51   77.39
  -3  -2   0  242.22   28.82
  -3  -2   0  266.25   27.25
   3   2   0  271.28   25.91
   3   2   0  157.80   36.80
   3   2   0  266.01   24.32
   3   2   1 4162.50  127.99
   3   2   1 3926.75  197.51
  -3  -2  -1 4108.11  131.10
  -3  -2  -1 4044.23  133.31
   3   2   1 3907.04  127.43
   3   2   1 3931.83  107.92
  -3  -2  -2 1861.11   80.09
   3   2   2 2007.77  139.08
   3   2   2 1777.65   75.07
  -3  -2  -2 1735.44   77.89
  -3  -2  -2 1842.17   82.50
   3   2   2 1789.89   74.97
   3   2   3   62.11   13.57
  -3  -2  -3   57.02   13.15
  -3  -2  -3   41.49   13.55
   3   2   3   42.80    9.77
  -3  -2  -3   59.73   13.44
   3   2   3   41.45   23.35
   3   2   4  482.90   75.43
   3   2   4  365.61   32.78
  -3  -2  -4  335.42   33.58
   3   2   4  434.15   32.76
  -3  -2  -4  415.43   34.69
   3   2   5  -10.81   16.82
  -3  -2  -5   15.60   11.93
  -3  -2  -5   -2.75    6.61
   3   2   5    4.68    7.95
   3   2   5   -2.34    7.35
  -3  -2  -5    2.53    4.62
   3   2   6  138.83   46.39
  -3  -2  -6  170.83   35.36
   3   2   6  177.39   23.90
  -3  -2  -6  208.06   28.82
   3   2   6  174.35   30.09
  -3  -2  -6  175.90   21.07
   3   2   7   89.20   20.06
   3   2   7   14.51   26.77
   3   2   7   80.50   12.29
  -3  -2  -7   86.49   29.32
   3   2   7   68.44   15.81
   3   2   7   78.48   14.88
  -3  -2  -7   78.80   20.09
  -3  -2  -7   77.80   13.47
   3   2   8   10.33    7.14
  -3  -2  -8  -10.36   17.98
  -3  -2  -8   10.91    6.05
   3   2   8   10.74    7.19
   3   2   8   12.48   18.38
   3   2   9   37.62   12.51
  -3  -2  -9    7.43   11.96
   3   2   9    6.66   14.63
   3   2   9   -4.45    5.25
  -3  -2 -10   16.73   14.33
  -3  -2 -11   33.47   20.24
  -3  -3  15   -5.06   11.88
  -3  -3  14    4.75    6.29
  -3  -3  13   18.72   12.91
  -3  -3  13   51.34   14.02
   3   3 -12   10.67    9.38
  -3  -3  12   53.08   12.12
  -3  -3  12   44.85   13.36
  -3  -3  12   30.24   14.96
   3   3 -11   22.33   14.76
  -3  -3  11   17.88    9.01
  -3  -3  11   20.99    9.37
  -3  -3  11    7.06    9.12
   3   3 -10   43.74   19.56
  -3  -3  10   54.01   16.69
  -3  -3  10   72.09   14.92
  -3  -3   9    9.21   13.02
   3   3  -9   -1.35   12.79
  -3  -3   9   14.72    9.13
  -3  -3   9   18.93    8.57
   3   3  -8  274.19   23.72
  -3  -3   8  299.16   47.05
  -3  -3   8  242.03   31.18
  -3  -3   8  260.23   28.59
  -3  -3   7  213.58   37.69
  -3  -3   7  273.20   29.55
   3   3  -7  286.75   28.82
   3   3  -7  285.50   31.25
   3   3  -7  237.77   32.76
  -3  -3   6  144.95   29.38
  -3  -3   6  133.12   20.69
   3   3  -6  152.86   20.66
  -3  -3   6  130.68   20.43
   3   3  -6  137.07   19.69
   3   3  -6  198.93   37.72
  -3  -3   6  115.57   16.01
  -3  -3   5  558.57   36.22
   3   3  -5  635.20   40.37
  -3  -3   5  583.40   41.17
  -3  -3   5  607.24   44.27
   3   3  -5  575.56   40.97
   3   3  -5  667.98   70.01
  -3  -3   4 3349.09  111.02
   3   3  -4 3508.65  110.65
  -3  -3   4 3575.30  117.17
   3   3  -4 3283.54  118.53
   3   3  -4 3939.61  183.26
   3   3  -4 3596.11  126.91
   3   3  -3  809.44   40.69
  -3  -3   3  816.49   45.03
   3   3  -3  792.39   49.05
   3   3  -3  825.78   80.93
   3   3  -3  843.23   52.49
   3   3  -2 1499.50   63.20
  -3  -3   2 1384.74   57.64
   3   3  -2 1444.73   53.32
   3   3  -2 1390.86   67.67
   3   3  -2 1323.28   69.43
  -3  -3   2 1371.91   66.16
   3   3  -2 1533.36  114.80
   3   3  -1 1678.76   69.52
   3   3  -1 1669.65   56.34
   3   3  -1 1608.86   73.51
  -3  -3   1 1625.21   76.22
   3   3  -1 1684.52  125.72
  -3  -3   1 1531.13   74.24
   3   3   0 3342.83  111.06
  -3  -3   0 3299.98  114.19
  -3  -3   0 3351.00  126.04
   3   3   0 3497.44  195.29
   3   3   0 3168.39   90.94
   3   3   0 3141.07  114.23
  -3  -3   0 3198.40  117.83
   3   3   1 2331.86   87.59
   3   3   1 2290.83  162.27
  -3  -3  -1 2215.69   90.03
  -3  -3  -1 2014.62   89.60
   3   3   1 2203.82   90.21
   3   3   1 2162.41   61.56
  -3  -3  -2 1146.05   62.28
   3   3   2 1250.45  123.04
  -3  -3  -2 1093.94   61.70
   3   3   2 1126.84   61.18
   3   3   2 1118.20   58.39
  -3  -3  -3 1082.17   63.61
   3   3   3 1252.50  131.11
   3   3   3 1251.27   63.00
  -3  -3  -3 1272.27   66.99
  -3  -3  -4  301.41   40.75
   3   3   4  290.35   66.57
   3   3   4  353.87   32.40
  -3  -3  -4  352.81   35.00
   3   3   4  331.93   48.08
  -3  -3  -4  317.73   32.89
  -3  -3  -5 1429.90   71.46
   3   3   5 1449.23  153.59
   3   3   5 1390.77   70.97
   3   3   5 1151.08   91.02
  -3  -3  -5 1331.19   75.85
   3   3   5 1405.50   57.41
  -3  -3  -5 1314.17   95.09
   3   3   6  201.48   34.11
   3   3   6  199.14   25.98
   3   3   6  329.69   74.66
  -3  -3  -6  200.26   41.00
  -3  -3  -6  205.07   29.17
   3   3   6  211.13   21.96
  -3  -3  -6  232.39   25.95
  -3  -3  -7   17.50   13.51
  -3  -3  -7   27.43   12.06
   3   3   7   71.01   15.78
   3   3   7   39.11   15.00
  -3  -3  -7   33.46    9.18
   3   3   8   61.17   15.29
  -3  -3  -8   50.08   22.63
   3   3   8   40.15   11.74
   3   3   8   22.16   24.16
   3   3   9   39.42   12.11
   3   3   9   69.02   34.53
  -3  -3  -9   36.36   22.48
  -3  -3 -10   30.16   20.02
  -3  -4  15   50.25   21.88
  -3  -4  14   55.45   23.27
  -3  -4  13  122.81   31.69
  -3  -4  13  144.64   26.57
   3   4 -13  130.60   27.13
  -3  -4  12   15.76   12.62
  -3  -4  12   10.97    7.35
   3   4 -12   17.78   11.86
  -3  -4  11  173.32   32.31
   3   4 -11  245.68   44.09
  -3  -4  10   -0.30    6.42
   3   4 -10   29.54   17.46
   3   4  -9  464.93   28.66
  -3  -4   9  457.11   61.94
  -3  -4   9  400.18   42.61
   3   4  -9  338.86   53.51
  -3  -4   8   40.72   21.52
  -3  -4   8   22.50    9.46
   3   4  -8   -0.16   11.56
   3   4  -8   38.95   12.26
  -3  -4   7  207.16   27.10
   3   4  -7  152.16   28.76
  -3  -4   6   11.14    6.27
   3   4  -6    7.83    9.78
   3   4  -5   30.64    9.49
  -3  -4   5   18.31    7.06
   3   4  -5   32.80   12.40
   3   4  -5   43.68   19.26
   3   4  -4  677.09   82.63
   3   4  -4  712.52   48.65
   3   4  -4  739.92   50.68
   3   4  -4  739.15   40.55
  -3  -4   4  732.27   43.46
   3   4  -3  954.04   56.68
   3   4  -3 1219.26  114.00
  -3  -4   3  935.34   47.07
   3   4  -3  857.06   41.11
   3   4  -3  903.01   55.49
  -3  -4   2  137.09   19.19
  -3  -4   2  122.01   15.13
   3   4  -2  105.59   11.64
   3   4  -2  107.51   18.52
   3   4  -2  140.92   44.74
  -3  -4   1  573.20   42.69
   3   4  -1  569.76   24.82
   3   4  -1  596.71   45.21
  -3  -4   1  552.19   44.06
   3   4  -1  671.12   89.44
  -3  -4   0 2984.95  118.67
   3   4   0 2930.24  106.76
  -3  -4   0 2972.59  110.67
   3   4   0 2929.69   73.00
  -3  -4   0 2785.34  113.68
   3   4   1 1331.26   65.77
   3   4   1 1275.98  103.26
  -3  -4  -1 1383.40   70.29
   3   4   1 1393.93  138.63
  -3  -4  -1 1353.99   72.67
   3   4   2  927.85  116.40
   3   4   2  647.59   44.23
   3   4   2  631.81   72.80
  -3  -4  -2  666.52   47.98
   3   4   2  576.61   22.67
   3   4   2  647.77   20.82
  -3  -4  -2  631.55   48.46
  -3  -4  -3  677.96   61.22
   3   4   3  637.43   44.87
   3   4   3  750.35  107.97
   3   4   3  623.48   72.60
  -3  -4  -3  563.78   45.74
   3   4   3  631.53   24.73
  -3  -4  -3  638.13   48.78
  -3  -4  -4 1345.32   73.50
   3   4   4 1377.20  151.04
   3   4   4 1370.45   70.03
   3   4   4 1081.68   95.43
  -3  -4  -4 1375.41   75.80
   3   4   4 1251.88   45.09
  -3  -4  -4 1354.46   93.28
  -3  -4  -5  508.89   61.35
   3   4   5  546.83   43.12
   3   4   5  679.79  106.11
   3   4   5  532.10   63.73
  -3  -4  -5  507.45   46.08
   3   4   5  498.25   28.70
  -3  -4  -5  520.62   43.62
  -3  -4  -6 1113.54   63.94
   3   4   6 1133.01  137.42
   3   4   6 1082.42   63.65
   3   4   6 1107.86   83.84
  -3  -4  -6 1156.94   73.89
   3   4   6 1012.96   48.50
  -3  -4  -6 1040.43   95.14
   3   4   7  150.25   22.50
   3   4   7  115.24   43.61
  -3  -4  -7  135.50   37.87
   3   4   8  220.33   28.25
   3   4   8  136.91   45.49
  -3  -4  -8  262.81   54.77
   3   4   9  386.56   73.23
  -3  -4  -9  465.79   77.77
  -3  -4 -10    6.58   17.82
  -3  -5  15  135.57   35.46
  -3  -5  14  620.83   71.68
  -3  -5  14  660.67   62.42
  -3  -5  13  286.48   40.55
  -3  -5  13  406.26   54.55
   3   5 -13  350.44   49.59
  -3  -5  12   53.52   19.25
  -3  -5  12   29.33   13.25
  -3  -5  12   39.68   12.62
   3   5 -12   21.54   17.00
  -3  -5  11  484.16   53.23
  -3  -5  11  342.89   38.52
   3   5 -11  342.62   56.60
   3   5 -10    2.34    2.93
   3   5 -10   10.63   16.76
  -3  -5  10   12.95    9.03
  -3  -5  10    7.43    6.93
   3   5  -9  117.16   19.14
   3   5  -9  108.52   34.41
  -3  -5   9  151.43   36.51
  -3  -5   9  157.54   27.60
  -3  -5   9  126.02   23.91
   3   5  -8   22.25   18.59
  -3  -5   8   25.93   11.91
  -3  -5   8   -3.62    4.85
   3   5  -8   -0.09    6.05
   3   5  -7   79.93   29.37
  -3  -5   7   99.68   18.88
  -3  -5   7  133.99   24.06
   3   5  -7   99.29   26.88
   3   5  -6   49.90   24.29
  -3  -5   6   69.01   14.75
  -3  -5   6   76.08   17.44
   3   5  -6   77.35   25.63
   3   5  -5  349.84   55.87
  -3  -5   5  342.26   30.69
   3   5  -5  311.92   54.46
   3   5  -5  423.32   37.57
   3   5  -4   30.02   21.89
  -3  -5   4   67.12   12.53
   3   5  -4   76.66   26.52
   3   5  -4   83.15   16.31
   3   5  -3  279.94   57.39
  -3  -5   3  273.03   52.96
  -3  -5   3  275.17   23.79
   3   5  -3  246.29   28.44
   3   5  -3  260.13   49.39
   3   5  -2  170.48   46.25
   3   5  -2  147.16   38.63
  -3  -5   2  205.05   28.37
  -3  -5   2  229.79   24.94
  -3  -5   1   67.82   14.06
  -3  -5   1   57.71   13.26
   3   5  -1   38.97   23.65
  -3  -5   1   60.77   15.13
   3   5  -1   57.70   33.64
  -3  -5   0  246.59   28.36
   3   5   0  312.30   65.11
   3   5   0  238.84   46.83
  -3  -5   0  275.03   32.54
  -3  -5   0  219.91   28.51
  -3  -5  -1  736.30   51.67
   3   5   1  601.47   76.69
  -3  -5  -1  737.97   55.02
   3   5   1  898.34  115.65
  -3  -5  -1  736.25   57.21
   3   5   2   84.04   38.60
  -3  -5  -2   42.03   13.25
   3   5   2   74.88   27.13
  -3  -5  -2   53.20   14.20
   3   5   3 1113.98  104.07
  -3  -5  -3 1250.02   72.81
  -3  -5  -3 1268.68   74.68
   3   5   3 1254.73  141.12
   3   5   4  445.77   82.63
  -3  -5  -4  456.58   43.62
  -3  -5  -4  454.85   43.61
   3   5   4  375.92   58.53
  -3  -5  -4  495.65   59.45
   3   5   5 1028.26  128.91
   3   5   5  821.25   81.26
  -3  -5  -5  898.56   64.41
  -3  -5  -5  974.90   90.16
  -3  -5  -5  952.40   63.85
   3   5   6  384.27   77.83
   3   5   6  332.63   46.57
  -3  -5  -6  325.78   55.64
   3   5   7  113.82   39.20
  -3  -5  -7  185.36   44.82
   3   5   8  308.69   70.20
  -3  -5  -8  342.39   64.84
  -3  -5  -9  159.42   46.04
  -3  -6  15  604.37   73.55
  -3  -6  14  471.97   57.75
  -3  -6  14  536.79   65.93
   3   6 -14  527.08   62.18
  -3  -6  13  353.71   48.64
  -3  -6  13  364.64   51.83
   3   6 -13  322.61   53.52
  -3  -6  12   41.21   18.71
  -3  -6  12   40.63   13.59
   3   6 -12   65.14   26.34
  -3  -6  11  235.25   34.66
   3   6 -11  260.49   22.63
  -3  -6  11  287.54   41.06
   3   6 -11  222.84   47.76
   3   6 -10 1696.40   77.97
  -3  -6  10 1669.29   98.00
  -3  -6  10 1672.21   94.57
   3   6 -10 1593.09  132.00
   3   6  -9  245.31   32.16
  -3  -6   9  278.51   35.77
   3   6  -9  243.55   51.98
  -3  -6   9  331.18   39.97
  -3  -6   8   57.38   17.21
   3   6  -8   51.93   17.29
  -3  -6   8   63.84   17.16
   3   6  -8   56.00   24.52
  -3  -6   7   11.65    9.74
  -3  -6   7   22.13   10.21
   3   6  -7    6.81   18.64
   3   6  -7   23.26   14.61
   3   6  -6  593.05   69.40
   3   6  -6  505.09   42.88
  -3  -6   6  538.11   41.43
   3   6  -6  462.43   70.45
  -3  -6   6  574.84   52.00
  -3  -6   6  462.12   70.99
   3   6  -5  403.63   37.61
   3   6  -5  562.85   72.85
  -3  -6   5  445.89   34.88
   3   6  -5  401.04   65.10
  -3  -6   5  450.49   45.84
  -3  -6   5  466.99   40.49
  -3  -6   5  509.22   76.74
   3   6  -4  461.28   39.09
   3   6  -4  388.71   66.39
  -3  -6   4  364.56   68.79
  -3  -6   4  432.87   32.05
   3   6  -4  360.51   60.54
   3   6  -3   49.53   30.07
  -3  -6   3   50.83   29.90
  -3  -6   3   25.12   10.79
  -3  -6   3   39.37    9.19
  -3  -6   3   44.55   13.19
   3   6  -3   23.01   20.28
   3   6  -2  295.69   56.57
  -3  -6   2  274.74   35.03
   3   6  -2  273.18   60.26
  -3  -6   2  269.71   30.90
  -3  -6   2  241.79   58.47
  -3  -6   1  193.44   24.52
   3   6  -1  151.15   42.77
  -3  -6   1  199.45   31.25
   3   6  -1  165.10   48.98
  -3  -6   1  201.54   26.80
  -3  -6   1  205.52   51.97
   3   6   0  345.91   70.92
  -3  -6   0  403.26   39.00
  -3  -6   0  289.76   33.02
   3   6   0  317.55   58.98
  -3  -6   0  365.03   40.75
   3   6   0  302.98   26.97
  -3  -6  -1   80.33   18.26
   3   6   1  118.29   44.72
  -3  -6  -1   73.54   18.29
   3   6   1   47.62   24.73
  -3  -6  -1   67.01   15.92
   3   6   2    5.16   13.30
  -3  -6  -2    4.87    7.92
  -3  -6  -2   12.57    9.18
   3   6   2    5.25   12.31
   3   6   3  808.93   91.45
  -3  -6  -3  978.00   65.62
   3   6   3  856.03  116.46
  -3  -6  -3  841.67   64.30
  -3  -6  -4  279.05   35.43
  -3  -6  -4  319.01   51.46
  -3  -6  -4  278.10   36.46
   3   6   4  358.28   57.70
   3   6   4  260.68   65.52
  -3  -6  -5   90.65   29.43
   3   6   5   75.80   24.95
   3   6   5  103.15   40.39
   3   6   6   50.50   26.74
  -3  -6  -6   13.81   18.59
   3   6   7  518.90   89.15
  -3  -6  -7  514.13   78.62
   3   6   8  402.41   78.84
  -3  -6  -8  385.12   70.89
  -3  -7  15  176.71   40.31
  -3  -7  15  200.86   40.85
   3   7 -14  214.15   42.45
  -3  -7  14  184.72   37.99
  -3  -7  14  240.84   43.71
   3   7 -13  113.15   33.33
  -3  -7  13  168.36   36.61
  -3  -7  13  161.25   34.49
   3   7 -12  430.59   31.12
  -3  -7  12  443.46   54.06
   3   7 -12  403.36   66.53
   3   7 -11 1542.84   73.71
  -3  -7  11 1462.62   96.34
  -3  -7  11 1491.41   94.53
   3   7 -11 1408.38  128.68
   3   7 -10  471.85   43.71
  -3  -7  10  310.55   41.06
   3   7 -10  415.02   71.09
  -3  -7  10  451.05   49.90
   3   7  -9   58.15   19.71
  -3  -7   9   43.78   18.63
   3   7  -9   10.89   15.45
  -3  -7   9   54.36   18.01
  -3  -7   9   38.65   12.86
  -3  -7   8  979.19  107.62
   3   7  -8  733.50   70.63
  -3  -7   8  829.23   59.98
  -3  -7   8  850.90   68.68
   3   7  -8  610.04   86.15
  -3  -7   7  840.32  100.55
   3   7  -7  678.08   73.62
   3   7  -7  763.01   95.37
  -3  -7   7  744.13   53.39
  -3  -7   7  831.13   67.91
   3   7  -6  514.80   42.79
   3   7  -6  480.00   66.19
  -3  -7   6  467.58   79.50
  -3  -7   6  584.70   43.30
   3   7  -6  330.68   62.98
  -3  -7   6  471.63   50.09
   3   7  -5   78.32   16.24
   3   7  -5  108.32   35.00
  -3  -7   5   77.36   30.65
  -3  -7   5   80.40   20.05
  -3  -7   5  119.73   21.95
  -3  -7   5   99.57   16.52
   3   7  -5   59.99   28.91
   3   7  -4   86.06   27.68
  -3  -7   4   56.93   34.03
  -3  -7   4   68.23   19.53
  -3  -7   4  105.18   20.12
  -3  -7   4   91.51   15.04
   3   7  -4  167.52   46.06
   3   7  -3  224.74   50.44
  -3  -7   3  229.57   60.34
  -3  -7   3  196.21   31.86
  -3  -7   3  185.18   27.15
  -3  -7   3  160.67   17.38
   3   7  -3  203.42   51.69
  -3  -7   2  178.85   26.61
  -3  -7   2  145.71   26.98
   3   7  -2  179.50   47.04
   3   7  -2  184.04   49.07
  -3  -7   2  216.71   57.93
  -3  -7   1  184.79   30.42
   3   7  -1  144.88   43.86
  -3  -7   1  155.80   21.15
  -3  -7   1  188.96   27.45
   3   7  -1  270.94   56.74
   3   7  -1  156.36   24.51
  -3  -7   0   95.53   22.03
   3   7   0   68.15   28.99
  -3  -7   0  108.01   19.83
  -3  -7   0   90.54   19.82
   3   7   0  150.39   44.34
   3   7   0   85.51   14.20
  -3  -7  -1   55.13   17.76
  -3  -7  -1   50.90   14.92
   3   7   1   57.28   28.34
   3   7   1  104.08   44.53
  -3  -7  -1   51.20   15.86
   3   7   2  324.48   72.14
  -3  -7  -2  392.22   45.63
   3   7   2  298.99   60.25
  -3  -7  -2  356.24   43.14
  -3  -7  -3   20.94   12.42
   3   7   3    2.76   10.50
   3   7   3   27.56   21.10
  -3  -7  -4  186.88   42.25
   3   7   4  159.53   39.88
   3   7   4  235.87   61.05
  -3  -7  -5  -11.31   17.37
   3   7   5    5.93    9.36
   3   7   6  116.44   45.75
  -3  -7  -6  147.20   40.48
   3   7   7  101.72   42.17
  -3  -7  -7  133.20   42.04
  -3  -8  15   10.31   11.70
  -3  -8  14   55.10   22.53
  -3  -8  14  123.92   32.62
   3   8 -14   59.36   25.19
  -3  -8  13   32.43   16.88
   3   8 -13   90.18   33.46
  -3  -8  12  736.74   69.97
   3   8 -12  533.04   79.89
   3   8 -12  652.42   46.70
  -3  -8  11  427.17   51.05
   3   8 -11  365.20   67.87
   3   8 -11  421.13   42.00
  -3  -8  10  109.63   24.86
  -3  -8  10  105.39   39.47
   3   8 -10  101.78   23.95
   3   8 -10   67.06   34.93
  -3  -8   9  610.20   89.09
  -3  -8   9  579.30   53.45
   3   8  -9  545.66   84.43
   3   8  -9  630.62   63.77
   3   8  -8  237.25   56.41
  -3  -8   8  345.97   37.85
   3   8  -8  261.53   45.19
  -3  -8   8  187.34   53.78
   3   8  -7 1378.39  137.49
  -3  -8   7 1659.19   84.07
   3   8  -7 1680.92  124.68
  -3  -8   7 1842.46  167.66
   3   8  -7 1701.67   85.52
  -3  -8   6  222.57   26.56
   3   8  -6  330.19   56.88
  -3  -8   6  306.61   69.27
   3   8  -6  298.00   32.21
   3   8  -5   68.81   26.99
  -3  -8   5   63.48   13.17
   3   8  -5   61.88   30.87
   3   8  -5   44.89   12.11
   3   8  -4  240.27   55.71
  -3  -8   4  214.98   22.23
   3   8  -4  228.21   52.36
   3   8  -3 1313.99  132.71
  -3  -8   3 1402.80   53.27
   3   8  -3 1394.89  132.61
   3   8  -2  294.15   65.71
   3   8  -2  254.18   58.28
   3   8  -2  343.90   42.80
   3   8  -1  -10.14   21.80
   3   8  -1   28.39   13.06
  -3  -8   1   21.81    7.82
   3   8   0   72.86   33.09
   3   8   0  102.48   37.48
   3   8   0  118.26   16.52
  -3  -8   0   84.05   16.50
  -3  -8  -1   25.04   10.17
   3   8   1   28.42   21.91
   3   8   1   52.53   28.74
  -3  -8  -2  411.64   46.51
   3   8   2  277.36   58.07
  -3  -8  -3   74.87   20.83
   3   8   3   38.56   24.08
   3   8   3  103.85   44.63
  -3  -8  -4   23.30   17.12
   3   8   4    7.28   10.29
   3   8   4   37.25   31.35
   3   8   5    6.37   14.16
  -3  -8  -5    8.80   16.82
   3   8   6  204.23   57.37
  -3  -8  -6  109.59   36.90
  -3  -9  16   17.61   19.19
  -3  -9  15    7.56   14.82
  -3  -9  14  130.56   35.68
  -3  -9  14  116.98   31.78
   3   9 -14  139.12   40.30
  -3  -9  13   11.22   10.63
   3   9 -13   29.31   22.45
  -3  -9  12  134.46   29.93
   3   9 -12  147.91   45.08
   3   9 -12  150.86   24.96
  -3  -9  11   87.40   23.49
   3   9 -11   84.20   37.44
  -3  -9  11   96.43   36.73
   3   9 -11   73.63   20.10
  -3  -9  10  160.27   28.87
   3   9 -10  138.69   44.74
  -3  -9  10  110.83   40.58
   3   9 -10  165.05   31.42
  -3  -9   9  200.76   31.20
   3   9  -9  157.85   47.42
   3   9  -9  212.89   39.57
  -3  -9   9  266.66   67.79
   3   9  -8  712.45   77.97
  -3  -9   8  749.55   57.92
   3   9  -8  678.58   96.81
   3   9  -7  269.66   31.45
  -3  -9   7  254.47   31.08
   3   9  -7  245.24   61.49
   3   9  -7  335.34   55.44
   3   9  -6  107.70   18.36
  -3  -9   6  130.01   20.08
   3   9  -6  180.80   51.48
   3   9  -6  123.28   35.68
  -3  -9   5  623.22   42.00
   3   9  -5  559.51   87.79
   3   9  -5  569.78   80.24
  -3  -9   4  540.03   34.36
   3   9  -4  361.95   73.21
   3   9  -4  377.96   69.66
   3   9  -3  127.57   43.93
   3   9  -3  169.75   49.59
   3   9  -3  127.74   29.71
   3   9  -2  168.82   50.98
   3   9  -2  104.13   40.59
   3   9  -2  132.62   27.05
   3   9  -1  204.24   56.93
   3   9  -1  290.53   64.68
   3   9  -1  158.62   25.06
  -3  -9   0  337.41   29.79
   3   9   0  281.62   62.74
   3   9   0  309.68   67.85
  -3  -9  -1  373.12   36.46
   3   9   1  310.99   66.40
   3   9   1  269.02   64.45
   3   9   2   45.31   27.63
   3   9   2   48.19   29.24
   3   9   3   35.30   24.42
   3   9   3   69.20   34.50
  -3  -9  -4    4.59   14.30
   3   9   4   15.03   18.67
  -3 -10  15   10.59   10.79
   3  10 -15   21.65   18.77
  -3 -10  14  -21.92   14.75
   3  10 -14  -44.43   25.34
  -3 -10  13  185.74   38.49
   3  10 -13  285.21   63.70
  -3 -10  12  144.10   31.42
   3  10 -12  151.66   47.62
   3  10 -12  138.90   26.62
  -3 -10  11   25.61   12.42
   3  10 -11   45.87   28.65
   3  10 -11   13.15    9.98
  -3 -10  10   96.87   22.60
   3  10 -10   56.39   32.82
   3  10 -10   71.01   23.84
  -3 -10   9  277.68   37.98
   3  10  -9  410.81   76.86
   3  10  -9  335.65   53.40
   3  10  -8  274.12   32.61
  -3 -10   8  280.82   34.71
   3  10  -8  216.34   58.62
   3  10  -8  225.35   46.26
   3  10  -7   50.79   12.80
  -3 -10   7   42.49   12.35
   3  10  -7   68.39   27.84
   3  10  -7   35.51   23.58
  -3 -10   6  121.06   19.74
   3  10  -6  171.05   45.08
   3  10  -6   77.72   36.83
  -3 -10   5  158.77   20.39
   3  10  -5  167.70   45.98
   3  10  -5  261.86   65.81
   3  10  -4  615.61   88.40
  -3 -10   4  627.65   34.57
   3  10  -4  590.11   95.89
   3  10  -4  695.20   75.62
   3  10  -3  320.26   66.16
   3  10  -3  293.28   67.20
   3  10  -3  251.57   41.49
   3  10  -2  151.84   50.77
   3  10  -2  111.15   42.15
   3  10  -1   68.10   33.80
   3  10  -1   88.34   34.67
   3  10   0  160.50   50.07
   3  10   0  259.14   61.90
   3  10   1  112.58   40.31
   3  10   1  178.09   55.04
   3  10   2   29.33   23.44
   3  10   2   28.22   26.51
   3  11 -15   52.12   27.70
   3  11 -14  107.38   39.40
  -3 -11  14  122.08   32.32
   3  11 -13  132.35   47.37
  -3 -11  13  262.73   44.62
   3  11 -12   42.73   15.40
   3  11 -12  117.46   43.09
  -3 -11  12   69.13   22.20
   3  11 -11   31.68   15.10
   3  11 -11   22.00   22.94
  -3 -11  11   15.18   11.32
   3  11 -10  105.44   31.36
   3  11 -10  166.67   55.43
  -3 -11  10  129.30   26.90
   3  11  -9  180.43   40.95
   3  11  -9   93.48   37.19
  -3 -11   9  151.64   27.62
   3  11  -8  219.02   47.48
   3  11  -8  205.35   56.70
  -3 -11   8  258.67   33.78
   3  11  -7   24.79   16.22
   3  11  -7   71.67   38.74
  -3 -11   7   35.08   12.00
   3  11  -6  169.64   44.48
   3  11  -6   72.02   37.72
  -3 -11   6  174.46   23.78
   3  11  -5  502.87   88.99
   3  11  -5  592.04   86.40
   3  11  -4   47.98   34.44
   3  11  -4   75.60   33.53
   3  11  -3  154.69   54.37
   3  11  -3  134.14   45.74
   3  11  -2    0.16   17.42
   3  11  -2  -12.38   17.59
   3  11  -1  147.14   50.39
   3  11  -1  209.26   56.90
   3  11   0  336.60   73.62
   3  11   0  410.31   80.73
   3  11   1   61.83   32.01
   3  11   2   79.68   35.58
   3  12 -14  177.73   52.29
   3  12 -13   24.64   23.29
  -3 -12  13   54.84   19.89
   3  12 -12   32.09   12.41
   3  12 -12   34.57   29.49
  -3 -12  12   22.47   14.78
   3  12 -11  288.22   48.54
   3  12 -11  163.93   53.26
  -3 -12  11  281.70   42.33
   3  12 -10  195.99   42.36
   3  12 -10  341.04   75.04
  -3 -12  10  247.99   37.85
   3  12  -9  107.33   33.71
   3  12  -9   95.71   41.30
  -3 -12   9  103.94   21.91
   3  12  -8  133.38   40.11
   3  12  -8   91.22   39.10
  -3 -12   8  192.34   29.48
   3  12  -7   28.55   28.06
   3  12  -7   88.42   32.53
   3  12  -6  638.33  104.57
   3  12  -6  632.71   87.46
   3  12  -5  157.88   50.93
   3  12  -5  209.91   53.13
   3  12  -4   -9.56   19.97
   3  12  -4   51.81   31.07
   3  12  -3   54.45   30.51
   3  12  -3   86.48   39.39
   3  12  -2  278.51   68.06
   3  12  -1  273.84   67.21
   3  12   0   31.87   23.57
  -3 -13  13   22.83   15.15
  -3 -13  12   51.83   21.92
   3  13 -12   24.15   15.01
  -3 -13  11  162.44   32.12
   3  13 -11  216.78   44.61
   3  13 -10  123.02   33.08
   3  13  -9   79.88   31.68
   3  13  -8   22.66   17.96
   3  13  -7  283.94   60.61
   3  13  -6  289.52   62.65
   4 -14   1   25.60   21.88
   4 -14   2   10.47   20.15
   4 -14   3  303.89   60.89
   4 -14   4  353.28   65.65
   4 -14   5  189.51   45.84
   4 -14   6  117.92   36.67
  -4  13   2   61.78   28.59
  -4  13   1    5.48   11.08
  -4  13   0   -3.38    8.88
   4 -13   0   33.13   19.21
  -4  13  -1   15.70   13.87
  -4  13  -1   23.11   16.06
   4 -13   1    7.11   13.95
  -4  13  -2  137.94   35.67
   4 -13   2  192.90   47.14
  -4  13  -2   75.84   32.57
   4 -13   3   59.80   27.27
  -4  13  -3   51.29   26.75
   4 -13   4   66.57   28.79
  -4  13  -4   86.80   32.45
   4 -13   5   17.29   15.32
  -4  13  -5   33.16   22.88
   4 -13   6  112.66   34.94
  -4  13  -6   84.04   35.16
   4 -13   7  321.38   60.80
  -4  13  -7  300.52   58.21
   4 -13   8  244.48   53.62
  -4  13  -8  563.31   77.69
  -4  13  -9   90.01   29.15
  -4  13 -10  147.19   40.19
   4 -12  -4  -48.09   27.00
  -4  12   4    6.43   12.65
  -4  12   3  255.79   49.01
  -4  12   3  232.28   45.48
  -4  12   2  150.09   36.48
  -4  12   2  124.39   32.28
   4 -12  -1   19.94   18.32
  -4  12   1   38.39   15.98
  -4  12   1   26.87   16.78
   4 -12   0    3.66   13.02
  -4  12   0   18.64   12.44
  -4  12   0   -8.01   10.71
   4 -12   1    7.28   15.09
  -4  12  -1   15.75   10.62
  -4  12  -1   -2.26    8.57
   4 -12   2   31.87   19.83
  -4  12  -2   -2.93   10.27
   4 -12   3   99.66   32.76
  -4  12  -3  142.41   38.86
   4 -12   4   41.81   24.79
  -4  12  -4   19.32   14.77
   4 -12   5   27.98   21.26
  -4  12  -5   37.45   20.35
   4 -12   6  117.10   34.19
  -4  12  -6  144.67   37.61
   4 -12   7   76.27   32.34
  -4  12  -7  124.21   36.48
   4 -12   8  136.85   38.78
  -4  12  -8  102.55   32.17
   4 -12   9   16.70   16.91
  -4  12  -9   13.77   12.95
  -4  12  -9   14.42   11.69
   4 -12  10  223.10   50.40
  -4  12 -10  301.18   51.40
  -4  12 -10  208.06   45.41
  -4  12 -11  443.38   66.48
  -4  12 -12   44.15   23.40
   4 -12  12   43.84   22.41
  -4  11   5  127.50   32.23
  -4  11   5  208.29   42.04
   4 -11  -5  142.91   41.60
   4 -11  -4  435.06   74.04
  -4  11   4  445.13   61.13
   4 -11  -4  619.25   88.37
  -4  11   4  575.91   69.21
  -4  11   3  234.23   43.67
   4 -11  -3  346.31   66.94
  -4  11   3  332.02   53.04
  -4  11   2  300.20   50.96
   4 -11  -2  375.69   50.64
   4 -11  -2  269.22   59.51
  -4  11   2  265.91   45.46
  -4  11   1  138.85   35.57
   4 -11  -1  238.40   42.34
   4 -11  -1  177.21   48.84
  -4  11   1  158.95   35.52
   4 -11   0   79.13   26.25
  -4  11   0   51.83   21.69
  -4  11   0   38.82   18.67
   4 -11   1  210.35   42.73
  -4  11  -1  191.74   41.94
  -4  11  -1  178.91   36.41
   4 -11   2   87.50   27.11
  -4  11  -2   76.45   28.93
  -4  11  -2   65.38   21.95
   4 -11   3    8.22   12.66
  -4  11  -3   17.16   18.52
   4 -11   4   23.44   16.82
  -4  11  -4   23.11   17.54
   4 -11   5  147.59   38.04
  -4  11  -5  116.31   33.97
  -4  11  -5  109.22   21.56
   4 -11   6   -0.60    9.82
  -4  11  -6   14.90   13.69
  -4  11  -6    8.11    5.77
   4 -11   7    9.53    9.59
  -4  11  -7   12.80   13.75
  -4  11  -7    2.87    7.27
   4 -11   8   11.44   15.22
  -4  11  -8   -7.59   13.96
  -4  11  -8   -6.09    7.23
  -4  11  -9   23.74   19.31
   4 -11   9   17.01   17.70
   4 -11  10   71.60   27.46
  -4  11 -10   42.02   20.56
   4 -11  11  -11.80   13.54
  -4  11 -11    3.42    9.80
   4 -11  11   13.55   15.40
  -4  11 -12   85.77   27.59
   4 -11  12   72.77   30.93
  -4  10   6  342.31   50.79
   4 -10  -6  319.65   56.75
  -4  10   5  225.87   41.73
   4 -10  -5  294.75   68.86
  -4  10   5  218.16   40.59
   4 -10  -5  217.83   50.13
   4 -10  -5  243.09   50.61
  -4  10   4  553.13   64.87
   4 -10  -4  678.69   86.54
  -4  10   4  540.08   63.09
   4 -10  -4  667.24   86.80
   4 -10  -3 1382.58   85.08
  -4  10   3 1123.59   92.27
   4 -10  -3 1298.70  123.18
  -4  10   3 1105.49   95.06
  -4  10   2  208.81   40.78
  -4  10   2  242.93   40.98
   4 -10  -2  237.54   37.06
   4 -10  -2  291.77   41.28
   4 -10  -2  188.11   46.83
  -4  10   1  364.15   53.68
   4 -10  -1  460.08   54.94
  -4  10   1  397.27   51.85
   4 -10  -1  441.06   51.52
   4 -10  -1  432.61   71.25
  -4  10   0  279.58   42.79
   4 -10   0  369.93   51.92
  -4  10   0  335.62   53.41
   4 -10   0  376.54   67.23
   4 -10   1  827.27   79.43
  -4  10  -1  833.18   75.55
   4 -10   1  901.20  104.62
  -4  10  -1  780.70   81.01
   4 -10   2  806.10   78.89
  -4  10  -2  757.03   79.55
  -4  10  -3    0.24   11.34
   4 -10   3   -1.11    8.65
  -4  10  -4  214.23   29.97
  -4  10  -4  249.52   45.82
   4 -10   4  276.30   46.19
  -4  10  -5   20.64   11.01
  -4  10  -5    6.83    7.06
   4 -10   5   40.94   18.17
  -4  10  -6   82.84   22.39
  -4  10  -6   55.53   23.66
   4 -10   6   18.30   13.45
  -4  10  -7   13.24   12.10
  -4  10  -7   23.45   16.12
   4 -10   7    2.64    7.67
  -4  10  -8   65.23   23.88
   4 -10   8   57.55   22.95
  -4  10  -9   22.71   16.74
   4 -10   9   -5.33   15.05
   4 -10  10  212.91   45.09
  -4  10 -10  324.19   50.95
   4 -10  10  258.34   50.05
   4 -10  11   32.08   18.81
   4 -10  11   27.58   18.72
  -4  10 -11   15.87   12.80
   4 -10  12   18.96   15.65
  -4  10 -12   51.62   21.36
   4 -10  12   52.15   19.33
   4  -9  -6   40.84   24.05
  -4   9   6   13.13    9.25
  -4   9   6   21.15   15.00
   4  -9  -6   74.29   28.63
   4  -9  -6   40.72   22.20
  -4   9   5  252.96   40.48
   4  -9  -5  260.37   59.50
   4  -9  -5  299.91   52.47
  -4   9   5  269.31   42.24
   4  -9  -5  299.47   54.66
  -4   9   4  841.48   74.60
  -4   9   4  818.79   75.81
   4  -9  -4  928.29   94.10
   4  -9  -4  857.25   54.26
   4  -9  -4  791.01   63.18
   4  -9  -4  832.18   92.78
  -4   9   3  414.52   53.64
   4  -9  -3  393.97   40.40
   4  -9  -3  381.24   44.68
  -4   9   3  378.51   49.10
   4  -9  -3  327.52   41.75
   4  -9  -3  396.39   63.30
  -4   9   2  262.62   42.05
  -4   9   2  305.12   43.50
   4  -9  -2  226.77   33.87
   4  -9  -2  348.55   41.59
   4  -9  -2  355.58   44.82
   4  -9  -2  270.25   53.15
  -4   9   1 1633.82  110.73
   4  -9  -1 1511.77   87.47
  -4   9   1 1475.02   98.88
   4  -9  -1 1631.31   98.46
   4  -9  -1 1519.37   98.45
   4  -9  -1 1297.56  117.64
   4  -9   0 1191.63   85.84
  -4   9   0 1146.73   85.08
  -4   9   0 1033.06   87.58
   4  -9   0 1059.93  106.50
  -4   9  -1 1245.33   97.02
   4  -9   1 1212.13  115.02
   4  -9   1 1169.50   87.98
  -4   9  -2  564.52   64.31
   4  -9   2  420.94   69.36
   4  -9   2  592.62   62.57
   4  -9   3  423.58   54.22
  -4   9  -3  432.10   42.32
  -4   9  -3  490.73   59.96
  -4   9  -4  260.39   34.44
   4  -9   4  219.21   40.03
  -4   9  -4  208.47   39.64
   4  -9   5  987.27   84.14
  -4   9  -5  779.71   66.15
  -4   9  -5  903.86   81.95
  -4   9  -6  250.51   40.12
   4  -9   6  255.54   43.37
  -4   9  -6  250.37   42.91
   4  -9   7    0.07    9.06
  -4   9  -7   21.13   15.10
   4  -9   8  434.17   58.27
  -4   9  -8  407.34   54.21
   4  -9   9   -5.32    8.16
  -4   9  -9    3.86    5.93
   4  -9   9   18.19   14.64
   4  -9  10   67.87   25.05
   4  -9  10   56.10   21.86
  -4   9 -10   39.21   16.68
   4  -9  11   13.85   16.38
   4  -9  11   13.06   10.76
  -4   9 -11   10.76    9.25
   4  -9  12    8.76   14.71
  -4   9 -12   -1.99    7.24
   4  -8  -8   39.19   18.14
   4  -8  -8   25.60   22.17
   4  -8  -7   26.45   14.82
   4  -8  -7   64.10   30.86
   4  -8  -7   35.22   19.27
  -4   8   6  142.34   28.64
   4  -8  -6   84.95   34.39
   4  -8  -6  136.41   31.92
  -4   8   6  207.00   34.61
   4  -8  -6  147.31   39.94
   4  -8  -5  148.29   28.72
  -4   8   5  242.05   37.10
  -4   8   5  182.74   33.20
   4  -8  -5  249.40   55.10
   4  -8  -5  180.54   37.76
   4  -8  -5  195.23   17.92
   4  -8  -5  187.81   29.62
   4  -8  -5  187.62   43.07
   4  -8  -4  128.63   25.96
  -4   8   4  159.53   30.16
  -4   8   4  212.29   35.87
   4  -8  -4  207.65   40.79
   4  -8  -4  191.39   22.64
   4  -8  -4  194.81   31.05
   4  -8  -4  192.87   41.39
  -4   8   3   19.33   11.44
   4  -8  -3   10.91    9.47
  -4   8   3   -4.07    9.64
   4  -8  -3   16.91   16.30
   4  -8  -3   40.35   14.89
   4  -8  -3   20.29   10.77
   4  -8  -3    2.58    8.18
  -4   8   2  304.78   43.47
  -4   8   2  236.81   36.43
   4  -8  -2  324.41   40.40
   4  -8  -2  283.34   34.31
   4  -8  -2  314.25   41.58
  -4   8   2  266.56   42.21
   4  -8  -2  273.07   49.59
   4  -8  -1  470.42   47.11
   4  -8  -1  519.17   50.39
  -4   8   1  485.86   51.47
  -4   8   1  624.18   63.23
   4  -8  -1  463.01   65.54
  -4   8   1  501.95   56.14
   4  -8   0 2758.41  128.28
  -4   8   0 2828.27  146.98
   4  -8   0 2535.95  159.63
  -4   8   0 2487.04  135.77
   4  -8   1  382.13   45.87
   4  -8   1  391.13   60.06
  -4   8  -1  392.31   52.86
  -4   8  -1  389.01   49.79
  -4   8  -2  209.93   37.32
  -4   8  -2  147.82   24.08
   4  -8   2  161.73   29.99
  -4   8  -2  189.91   37.73
   4  -8   2  205.32   45.40
   4  -8   3 1857.00  109.34
  -4   8  -3 1831.14   94.86
  -4   8  -3 1734.25  110.59
   4  -8   3 1556.46  131.21
   4  -8   4 2513.91  131.24
  -4   8  -4 2316.59  129.75
  -4   8  -4 2325.38  116.69
   4  -8   5 1275.24   92.75
  -4   8  -5 1224.24   87.76
  -4   8  -5 1371.05   96.12
   4  -8   6   33.86   15.58
  -4   8  -6   36.85   17.21
   4  -8   7  410.63   53.24
  -4   8  -7  527.41   57.91
   4  -8   8  166.96   34.13
   4  -8   8  203.88   38.79
  -4   8  -8  253.48   39.41
   4  -8   9  742.92   73.75
   4  -8   9  710.66   70.78
  -4   8  -9  734.76   67.88
   4  -8  10   36.12   19.30
   4  -8  10   27.22   18.27
  -4   8 -10   25.08   14.73
   4  -8  11   16.34   12.65
   4  -8  11   -1.52   10.77
  -4   8 -11   28.12   13.72
   4  -8  12   93.09   28.93
   4  -8  13   30.30   17.02
   4  -7  -9   23.63   16.03
   4  -7  -9   63.24   35.93
   4  -7  -8   11.14   12.68
   4  -7  -8    8.72   15.80
   4  -7  -8    3.24    7.79
   4  -7  -7   -2.40   12.59
   4  -7  -7   -5.11   13.89
   4  -7  -7   -4.35    8.35
   4  -7  -6   68.61   28.43
  -4   7   6   41.72   15.51
   4  -7  -6   55.22   19.91
   4  -7  -6   34.93   18.57
   4  -7  -6   50.46   19.16
   4  -7  -5   36.52   19.85
   4  -7  -5    0.89    5.61
   4  -7  -5   -7.72    9.89
  -4   7   5    5.35    9.84
   4  -7  -5   24.78   17.76
   4  -7  -5    5.16    2.75
   4  -7  -5    4.72    3.60
   4  -7  -5   -2.55    4.85
   4  -7  -5    5.10    8.41
   4  -7  -4   43.58   20.99
   4  -7  -4   20.40   14.25
  -4   7   4   33.26   14.94
   4  -7  -4   15.55    8.92
   4  -7  -4   40.96   26.40
  -4   7   4   25.70   13.59
   4  -7  -4   20.53    7.36
   4  -7  -4   18.17    7.05
   4  -7  -4   45.07   19.33
   4  -7  -3   -0.08    7.44
   4  -7  -3    3.96    6.43
  -4   7   3   -1.93    4.95
   4  -7  -3    0.49    4.63
   4  -7  -3   21.49   17.35
   4  -7  -3    9.85    6.25
   4  -7  -3   22.80   16.14
   4  -7  -3   13.71   10.81
  -4   7   3   29.54   14.51
   4  -7  -2  429.72   59.83
   4  -7  -2  423.91   57.52
   4  -7  -2  499.94   49.88
  -4   7   2  454.51   50.67
   4  -7  -2  417.40   37.93
   4  -7  -2  432.18   48.89
   4  -7  -2  494.55   62.23
  -4   7   2  406.61   48.92
   4  -7  -1  232.28   33.43
   4  -7  -1  278.24   43.61
  -4   7   1  188.94   32.67
   4  -7  -1  258.43   31.20
   4  -7  -1  247.59   43.99
  -4   7   1  258.85   39.30
   4  -7  -1  272.59   48.25
  -4   7   0   62.25   20.88
   4  -7   0   83.26   27.20
   4  -7   0  120.23   22.74
   4  -7   0   90.78   28.10
  -4   7   0   87.34   21.72
   4  -7   0  105.82   25.35
   4  -7   1  113.67   29.70
  -4   7  -1  123.80   26.88
  -4   7  -1  132.13   22.13
   4  -7   1  116.95   26.63
   4  -7   1  141.20   27.00
   4  -7   1  103.60   29.96
  -4   7  -1  115.43   27.59
   4  -7   2 1239.95   80.43
  -4   7  -2 1239.17   74.94
   4  -7   2 1243.23   86.78
  -4   7  -2 1249.66   86.71
   4  -7   2 1243.72  100.69
  -4   7  -2 1214.78   93.22
   4  -7   2 1121.66   99.42
   4  -7   3 1675.97   97.80
  -4   7  -3 1703.61   95.01
   4  -7   3 1791.65  104.26
  -4   7  -3 1741.00  103.93
   4  -7   3 1827.57  124.62
   4  -7   3 1568.55  123.39
  -4   7  -3 1703.97  115.10
   4  -7   4  673.01   60.53
  -4   7  -4  566.50   56.29
   4  -7   4  592.17   57.38
  -4   7  -4  685.49   62.55
   4  -7   4  705.11   75.85
  -4   7  -4  540.96   66.08
   4  -7   5  522.61   55.27
   4  -7   5  534.07   53.04
  -4   7  -5  542.28   68.17
  -4   7  -5  544.62   55.38
   4  -7   5  517.30   65.49
   4  -7   6  803.77   69.88
   4  -7   6  883.93   69.07
   4  -7   6  784.29   82.23
  -4   7  -6  824.78   68.61
   4  -7   6  648.41   65.31
   4  -7   7 1013.30   80.93
   4  -7   7 1115.77   79.37
   4  -7   7 1118.94  101.04
  -4   7  -7  942.84   73.94
   4  -7   7 1066.26   82.97
   4  -7   8 1435.40   99.38
   4  -7   8 1597.01   96.70
   4  -7   8 1407.23   95.93
  -4   7  -8 1477.36   93.22
   4  -7   8 1351.60  115.11
   4  -7   9   54.93   19.34
  -4   7  -9   84.89   20.91
   4  -7   9   77.38   29.70
   4  -7   9   63.34   19.95
   4  -7  10  198.26   34.60
   4  -7  10  211.45   38.55
   4  -7  11  291.79   40.17
   4  -7  11  248.23   43.43
   4  -7  12  194.91   38.95
   4  -7  13   95.98   27.76
   4  -6 -10   73.70   25.44
   4  -6 -10   75.19   35.30
   4  -6  -9    9.47   10.36
   4  -6  -9   82.00   36.78
   4  -6  -8   83.05   20.82
   4  -6  -8   37.15   18.45
   4  -6  -7  333.13   65.64
   4  -6  -7  295.94   48.12
   4  -6  -7  376.21   63.63
   4  -6  -7  287.49   49.04
   4  -6  -7  418.96   47.21
   4  -6  -6   59.99   18.15
   4  -6  -6   76.28   24.07
   4  -6  -6   72.29   27.73
   4  -6  -6   64.98   22.97
   4  -6  -6   91.07   19.55
   4  -6  -6   45.18   21.54
   4  -6  -5   24.79   12.75
   4  -6  -5    4.32   10.76
   4  -6  -5  -11.21   12.78
   4  -6  -5   23.24   15.06
  -4   6   5   25.75   12.01
   4  -6  -5   18.18    4.52
   4  -6  -5   18.81    9.18
   4  -6  -5   17.93   15.56
   4  -6  -4   99.55   27.74
   4  -6  -4   83.63   23.17
   4  -6  -4  100.61   22.15
   4  -6  -4  121.13   30.14
  -4   6   4   92.54   21.80
   4  -6  -4  108.86   14.04
   4  -6  -4  111.49   22.71
   4  -6  -4  107.57   27.87
   4  -6  -3   24.19   14.62
   4  -6  -3   45.62   17.45
   4  -6  -3   88.87   21.51
   4  -6  -3   63.56   21.98
  -4   6   3   67.18   18.85
   4  -6  -3   67.01   13.00
   4  -6  -3   45.57   15.79
   4  -6  -3   44.77   19.65
   4  -6  -2   88.88   24.15
   4  -6  -2  114.68   24.09
   4  -6  -2  131.03   29.12
   4  -6  -2   81.71   23.05
  -4   6   2   87.28   21.45
   4  -6  -2  112.55   17.91
   4  -6  -2   93.12   26.60
  -4   6   2  124.08   25.89
   4  -6  -2  119.09   25.33
   4  -6  -1   40.08   18.52
   4  -6  -1   39.28   14.14
   4  -6  -1   48.09   17.55
   4  -6  -1   18.36   13.13
  -4   6   1   66.86   18.71
   4  -6  -1   16.21    7.58
   4  -6  -1   19.94   13.14
  -4   6   1   33.96   13.27
   4  -6   0    3.82    6.54
   4  -6   0   -7.63   11.57
   4  -6   0    7.78    7.68
  -4   6   0   12.24   12.53
   4  -6   0   23.99   11.92
   4  -6   0   18.64    9.73
   4  -6   0   -6.22   13.52
  -4   6   0   -2.67    5.36
  -4   6  -1   10.95    6.91
  -4   6  -1   14.85   10.59
   4  -6   1   16.46    9.08
   4  -6   1   19.77   16.82
  -4   6  -1    9.95    8.54
  -4   6  -2  575.59   53.79
   4  -6   2  581.93   61.66
   4  -6   2  592.49   51.28
  -4   6  -2  575.50   52.80
  -4   6  -2  616.63   52.29
  -4   6  -2  580.65   60.96
   4  -6   3  495.33   56.35
  -4   6  -3  449.43   47.85
   4  -6   3  442.32   50.93
   4  -6   3  403.13   43.50
  -4   6  -3  422.51   46.78
  -4   6  -3  402.76   45.55
   4  -6   3  503.01   47.18
  -4   6  -3  419.18   52.90
   4  -6   3  463.11   61.62
   4  -6   4   80.34   24.69
  -4   6  -4  129.34   25.66
   4  -6   4  133.09   24.45
  -4   6  -4  105.60   26.08
   4  -6   4  168.60   31.27
  -4   6  -4  109.14   24.81
   4  -6   4  119.58   25.52
  -4   6  -4  127.89   30.20
   4  -6   5  156.91   33.05
   4  -6   5  184.89   29.04
  -4   6  -5  154.15   27.57
   4  -6   5  200.72   34.07
  -4   6  -5  127.65   28.19
   4  -6   5  155.86   29.33
  -4   6  -5  204.79   40.00
  -4   6  -6  685.81   58.63
   4  -6   6  681.33   69.56
   4  -6   6  728.66   58.11
   4  -6   6  695.06   62.00
   4  -6   6  593.86   57.44
  -4   6  -6  560.31   68.18
  -4   6  -7 2057.71  106.92
   4  -6   7 1902.58  123.77
   4  -6   7 2229.64  108.08
   4  -6   7 1778.77  107.13
  -4   6  -7 1781.55  129.90
   4  -6   7 1982.71  109.92
   4  -6   8  396.94   60.21
  -4   6  -8  480.28   47.66
   4  -6   8  522.12   50.01
   4  -6   8  393.22   55.29
   4  -6   8  422.27   53.12
   4  -6   8  335.67   44.85
   4  -6   9  114.35   23.38
   4  -6   9  116.56   27.47
   4  -6   9  149.86   28.05
   4  -6   9  106.30   30.91
   4  -6  10  712.94   59.99
   4  -6  10  631.16   76.67
   4  -6  10  635.31   65.44
   4  -6  11  428.13   44.83
   4  -6  11  506.45   59.97
   4  -6  12  315.30   48.09
   4  -6  13   22.39   16.02
   4  -6  14   66.50   23.47
   4  -5 -11  454.31   63.56
   4  -5 -10  319.28   66.41
   4  -5 -10  234.89   45.62
   4  -5  -9  323.30   63.88
   4  -5  -9  383.11   55.06
   4  -5  -9  362.61   37.07
   4  -5  -8  415.46   67.05
   4  -5  -8  462.80   56.86
   4  -5  -8  384.52   54.06
   4  -5  -8  455.99   43.86
   4  -5  -8  358.66   65.43
   4  -5  -7  210.55   31.32
   4  -5  -7  233.50   46.39
   4  -5  -7  229.26   39.46
   4  -5  -7  263.30   50.32
   4  -5  -7  195.67   29.21
   4  -5  -7  163.79   32.87
   4  -5  -6  214.65   32.22
   4  -5  -6  296.91   43.98
   4  -5  -6  311.97   48.97
   4  -5  -6  331.35   52.63
   4  -5  -6  275.53   34.55
   4  -5  -6  338.42   45.04
   4  -5  -5   71.12   19.52
   4  -5  -5   33.02   15.00
   4  -5  -5   90.32   26.02
   4  -5  -5   70.67   22.80
   4  -5  -5   50.92    6.35
   4  -5  -5   54.18   14.96
   4  -5  -5   69.39   22.04
   4  -5  -4  200.23   33.81
   4  -5  -4  244.43   34.69
   4  -5  -4  227.73   32.65
   4  -5  -4  239.57   36.97
   4  -5  -4  247.36   19.67
   4  -5  -4  257.24   38.73
   4  -5  -4  291.85   35.65
  -4   5   4  318.16   36.94
   4  -5  -4  276.77   42.03
   4  -5  -3  500.98   50.46
   4  -5  -3  470.07   49.18
   4  -5  -3  508.26   49.16
   4  -5  -3  496.93   52.64
  -4   5   3  474.20   46.53
   4  -5  -3  487.76   32.57
   4  -5  -3  594.67   53.26
   4  -5  -3  542.32   56.44
   4  -5  -2   21.08   14.52
   4  -5  -2   -0.05    5.27
   4  -5  -2   -4.23    7.73
  -4   5   2    8.22    9.06
   4  -5  -2   -3.11    5.92
  -4   5   2   16.39    9.76
   4  -5  -2    9.28    9.33
   4  -5  -2    9.29    9.98
   4  -5  -2    1.49    7.07
   4  -5  -1   50.68   17.19
   4  -5  -1   39.59   15.25
   4  -5  -1   45.43   15.64
   4  -5  -1   32.47   13.02
  -4   5   1   32.90   12.93
   4  -5  -1   30.49    9.92
  -4   5   1   29.73   10.24
  -4   5   1   26.96   13.04
   4  -5  -1   34.88   16.43
  -4   5   0  217.28   30.45
   4  -5   0  200.39   32.00
   4  -5   0  223.86   26.60
  -4   5   0  200.20   27.43
   4  -5   0  171.44   28.15
  -4   5   0  271.90   36.47
  -4   5  -1    1.28    5.36
  -4   5  -1    2.95    7.82
   4  -5   1    1.09    6.28
   4  -5   1   11.46    9.73
  -4   5  -1   14.75   12.85
  -4   5  -2  933.21   65.17
   4  -5   2  848.02   67.31
   4  -5   2  887.38   59.95
  -4   5  -2  892.93   64.17
  -4   5  -2  862.96   64.40
  -4   5  -2  887.56   71.57
   4  -5   3   71.94   16.74
  -4   5  -3   42.42   16.61
  -4   5  -3  103.23   21.29
   4  -5   3   39.91   16.14
   4  -5   3   35.02   12.69
   4  -5   3   53.05   17.59
  -4   5  -3   53.93   17.56
   4  -5   3   77.68   26.71
   4  -5   4  192.16   27.36
  -4   5  -4  173.29   27.35
   4  -5   4  197.56   32.06
   4  -5   4  197.16   30.06
  -4   5  -4  154.03   31.15
   4  -5   4  189.59   33.02
   4  -5   5  211.83   35.63
   4  -5   5  270.65   33.07
  -4   5  -5  258.42   33.24
   4  -5   5  211.23   32.21
   4  -5   5  243.73   33.93
  -4   5  -5  256.79   37.88
  -4   5  -5  220.25   38.47
   4  -5   6  219.83   36.04
   4  -5   6  293.02   35.83
  -4   5  -6  280.07   34.79
   4  -5   6  303.48   40.57
   4  -5   6  282.90   37.47
  -4   5  -6  261.18   39.83
  -4   5  -6  196.72   38.59
   4  -5   7  360.55   47.94
   4  -5   7  442.03   57.23
   4  -5   7  403.57   42.69
   4  -5   7  395.62   45.20
  -4   5  -7  455.39   59.76
   4  -5   7  440.46   45.11
   4  -5   8   24.99   10.84
   4  -5   8   61.05   21.87
   4  -5   8   33.05   12.29
   4  -5   8   36.44   14.75
   4  -5   8   30.40   16.35
  -4   5  -8   36.79   19.05
   4  -5   9  388.57   47.56
   4  -5   9  368.87   50.81
   4  -5   9  420.04   59.46
   4  -5   9  418.75   43.20
   4  -5   9  422.43   44.45
   4  -5  10  249.48   32.08
   4  -5  10  273.16   35.40
   4  -5  10  198.30   36.18
   4  -5  11  710.53   68.03
   4  -5  12  137.38   30.47
   4  -5  13  155.62   33.46
  -4   4  12  203.86   41.73
   4  -4 -12  258.37   48.48
   4  -4 -11  139.72   46.72
   4  -4 -11   99.88   28.43
  -4   4  11  123.93   31.18
   4  -4 -10  297.30   62.94
   4  -4 -10  330.49   50.89
  -4   4  10  260.65   43.55
   4  -4  -9  530.67   74.30
   4  -4  -9  454.64   72.84
   4  -4  -9  480.92   59.46
  -4   4   9  386.30   52.52
   4  -4  -9  476.53   40.12
   4  -4  -8  876.68   92.59
   4  -4  -8  739.27   65.39
   4  -4  -8  717.27   78.84
   4  -4  -8  849.34   75.62
   4  -4  -8  899.20   59.06
   4  -4  -7  970.74   63.47
   4  -4  -7  960.41   72.09
   4  -4  -7  794.58   76.53
   4  -4  -7  919.88   64.23
   4  -4  -7  861.10   73.89
   4  -4  -7  907.70   88.40
   4  -4  -6  500.67   45.33
   4  -4  -6  458.02   52.41
   4  -4  -6  371.55   43.07
   4  -4  -6  463.99   43.60
   4  -4  -6  463.61   51.23
   4  -4  -6  408.26   54.43
   4  -4  -5  290.42   35.88
   4  -4  -5  328.84   41.00
   4  -4  -5  352.78   16.86
   4  -4  -5  410.20   44.23
   4  -4  -5  313.39   35.64
   4  -4  -5  370.94   48.39
   4  -4  -5  338.92   42.78
   4  -4  -4  935.81   65.64
   4  -4  -4  946.98   67.90
   4  -4  -4  965.42   68.62
   4  -4  -4  992.93   66.84
   4  -4  -4 1000.07   41.22
   4  -4  -4 1017.10   67.29
   4  -4  -4  996.82   73.81
   4  -4  -4 1048.57   76.62
   4  -4  -3  424.63   40.37
   4  -4  -3  464.21   45.99
   4  -4  -3  423.33   44.20
   4  -4  -3  500.38   46.93
  -4   4   3  460.41   32.66
   4  -4  -3  487.96   30.16
   4  -4  -3  492.67   46.63
   4  -4  -3  382.10   44.40
   4  -4  -2   32.13   13.78
   4  -4  -2   33.99   11.03
   4  -4  -2   43.05   17.13
  -4   4   2   18.25    9.22
   4  -4  -2   33.09   12.40
   4  -4  -2   27.23    8.14
  -4   4   2   32.66    9.57
   4  -4  -2   30.86   12.25
   4  -4  -1  117.78   20.01
   4  -4  -1  130.54   24.35
  -4   4   1  144.57   23.68
   4  -4  -1  118.42   22.00
   4  -4  -1  121.92   17.94
  -4   4   1  103.17   17.85
  -4   4   1  126.80   23.45
  -4   4   0  811.04   57.04
   4  -4   0  755.47   58.41
  -4   4   0  765.03   51.90
   4  -4   0  687.88   45.89
   4  -4   0  643.42   54.13
  -4   4   0  648.16   51.19
  -4   4   0  711.59   57.24
  -4   4  -1  879.37   60.26
   4  -4   1  923.80   64.98
   4  -4   1  920.73   56.18
  -4   4  -1  875.07   62.77
  -4   4  -1  859.04   64.43
  -4   4  -2  112.43   20.91
   4  -4   2  118.76   22.48
   4  -4   2   78.96   17.19
  -4   4  -2   97.95   23.46
  -4   4  -2   76.89   20.86
   4  -4   3   40.77   12.76
   4  -4   3   59.06   17.05
  -4   4  -3   85.49   18.14
  -4   4  -3   61.88   19.39
   4  -4   4   61.59   16.25
   4  -4   4   64.04   17.16
  -4   4  -4   93.84   23.40
   4  -4   5  153.60   28.66
   4  -4   5  155.93   26.03
   4  -4   5  139.35   24.49
  -4   4  -5  159.68   28.97
  -4   4  -5  149.92   30.38
   4  -4   6  709.35   58.18
  -4   4  -6  687.49   63.92
   4  -4   6  639.88   52.41
   4  -4   6  629.96   60.73
  -4   4  -6  540.40   59.84
   4  -4   7   61.97   19.69
   4  -4   7   50.47   14.84
   4  -4   7   44.87   14.10
  -4   4  -7   59.76   20.51
  -4   4  -7   30.43   16.84
   4  -4   8  150.90   28.95
   4  -4   8  122.92   22.32
  -4   4  -8  142.03   33.15
   4  -4   8  113.94   29.19
   4  -4   9  107.17   26.30
   4  -4   9  150.74   23.83
  -4   4  -9  116.37   28.68
   4  -4   9  117.34   30.07
   4  -4  10  491.97   41.24
   4  -4  10  397.34   48.99
   4  -4  11  219.13   37.30
   4  -4  12   -1.86    7.68
   4  -4  13  120.57   29.01
  -4   3  13   87.94   27.88
   4  -3 -12  261.35   62.89
   4  -3 -12  249.18   48.13
  -4   3  12  215.93   42.72
   4  -3 -11   41.41   22.33
   4  -3 -11   32.74   21.07
  -4   3  11   68.83   25.00
   4  -3 -10  197.65   50.39
   4  -3 -10  258.85   44.57
  -4   3  10  182.62   36.13
   4  -3 -10  212.22   22.99
   4  -3  -9  769.04   77.72
   4  -3  -9  828.20   93.06
   4  -3  -9  605.63   54.12
   4  -3  -9  787.78   49.71
  -4   3   9  694.04   68.25
   4  -3  -9  810.58   75.96
   4  -3  -8  553.64   58.88
   4  -3  -8  504.92   47.48
   4  -3  -8  622.56   75.40
   4  -3  -8  568.90   43.57
  -4   3   8  468.36   54.22
   4  -3  -8  659.77   64.08
   4  -3  -7  503.40   50.87
   4  -3  -7  542.96   44.12
   4  -3  -7  590.58   49.96
   4  -3  -7  542.56   64.63
  -4   3   7  576.55   57.18
   4  -3  -7  458.54   44.07
   4  -3  -7  560.05   56.48
   4  -3  -6  123.26   25.47
  -4   3   6  120.20   25.02
   4  -3  -6   91.48   20.75
   4  -3  -6  105.42   19.14
   4  -3  -6   81.99   24.16
   4  -3  -6  118.98   22.03
   4  -3  -6  103.45   21.08
   4  -3  -5 1206.78   69.65
   4  -3  -5 1112.09   66.37
   4  -3  -5 1149.32   37.66
   4  -3  -5 1129.07   70.12
   4  -3  -5 1130.56   69.18
   4  -3  -5 1095.08   74.65
   4  -3  -5 1096.17   80.31
   4  -3  -4 1472.92   73.08
   4  -3  -4 1645.47   84.30
   4  -3  -4 1369.28   77.45
  -4   3   4 1472.89   57.82
   4  -3  -4 1482.99   52.57
   4  -3  -4 1508.76   82.05
   4  -3  -4 1413.71   84.23
   4  -3  -4 1523.61   88.36
   4  -3  -3 2251.80   92.47
   4  -3  -3 2269.87  109.67
   4  -3  -3 2275.78  104.12
   4  -3  -3 2249.30  102.85
  -4   3   3 2342.56   83.50
   4  -3  -3 2357.05   77.67
   4  -3  -3 2346.28  107.85
   4  -3  -3 2328.38  103.93
   4  -3  -2  440.78   41.29
   4  -3  -2  450.97   30.83
  -4   3   2  453.58   33.76
   4  -3  -2  444.01   41.59
   4  -3  -2  476.76   44.81
   4  -3  -2  444.65   36.26
   4  -3  -2  448.55   45.09
   4  -3  -1  306.08   33.89
   4  -3  -1  261.36   33.64
  -4   3   1  271.98   31.55
  -4   3   1  287.43   33.55
   4  -3  -1  234.28   23.51
  -4   3   1  287.40   28.09
   4  -3   0  451.09   42.53
   4  -3   0  429.22   43.87
  -4   3   0  479.23   44.13
  -4   3   0  517.93   45.29
  -4   3   0  459.86   37.85
   4  -3   0  481.92   36.33
   4  -3   1 1374.46   77.21
  -4   3  -1 1456.59   83.39
  -4   3  -1 1306.09   76.45
   4  -3   1 1297.55   66.46
   4  -3   2  106.10   20.68
  -4   3  -2  133.12   26.39
   4  -3   2   94.38   17.51
  -4   3  -2   88.96   19.71
   4  -3   3   21.62    9.45
  -4   3  -3   29.60   11.72
   4  -3   3   29.04   11.68
   4  -3   4  710.66   52.17
  -4   3  -4  518.25   50.94
   4  -3   4  564.67   46.65
   4  -3   4  557.25   46.60
   4  -3   5  585.17   49.12
  -4   3  -5  554.21   52.56
  -4   3  -5  563.72   54.91
   4  -3   5  576.02   46.57
   4  -3   5  511.02   46.92
   4  -3   6  101.93   22.93
  -4   3  -6  110.32   25.68
   4  -3   6  127.23   23.63
  -4   3  -6  101.98   23.95
   4  -3   6   84.94   17.92
   4  -3   7   10.67   10.42
  -4   3  -7   -0.30    6.04
   4  -3   7   22.71   13.13
  -4   3  -7   11.36    7.16
   4  -3   7    4.69    6.61
   4  -3   8   14.22   10.67
   4  -3   8    3.65    8.57
   4  -3   8   18.15    7.81
  -4   3  -8    3.55    9.22
   4  -3   9  316.54   47.39
   4  -3   9  310.68   37.57
   4  -3   9  379.10   44.61
   4  -3   9  393.23   34.53
  -4   3  -9  287.97   44.67
  -4   3 -10   88.65   26.36
   4  -3  10  135.90   28.91
   4  -3  11   13.25   17.58
   4  -3  11   14.70   13.96
   4  -3  12   31.47   15.35
   4  -3  13  162.27   33.69
  -4   2  14   76.51   29.21
  -4   2  13   26.57   19.34
  -4   2  12    1.32   11.07
   4  -2 -12   -9.74   15.63
  -4   2  11   40.41   21.32
   4  -2 -11   26.78   15.53
   4  -2 -10  502.76   43.76
   4  -2 -10  629.13   48.69
   4  -2 -10  595.04   83.61
  -4   2  10  669.04   68.34
   4  -2 -10  574.14   38.14
   4  -2  -9  152.73   28.88
   4  -2  -9  140.97   19.67
   4  -2  -9  169.74   40.47
  -4   2   9  140.96   29.89
   4  -2  -9  137.42   22.15
  -4   2   8   27.11   14.10
   4  -2  -8   80.11   18.01
   4  -2  -8   16.96    6.11
   4  -2  -8   33.76   11.03
   4  -2  -8   18.51   10.64
   4  -2  -8   36.21   22.10
   4  -2  -7  174.60   25.52
   4  -2  -7  213.63   25.99
   4  -2  -7  212.79   39.47
   4  -2  -7  202.87   26.68
   4  -2  -7  201.30   27.70
  -4   2   7  214.47   33.94
   4  -2  -6 1361.54   67.84
   4  -2  -6 1341.55   73.47
   4  -2  -6 1348.39   93.49
  -4   2   6 1399.11   43.94
  -4   2   6 1417.48   86.41
   4  -2  -6 1346.66   75.31
   4  -2  -6 1395.66   72.16
   4  -2  -5 1041.83   55.41
   4  -2  -5 1038.82   37.88
   4  -2  -5 1060.30   75.23
   4  -2  -5 1048.86   63.41
  -4   2   5 1106.66   43.41
  -4   2   5  903.06   65.89
   4  -2  -5 1002.98   63.04
   4  -2  -5 1028.38   61.40
  -4   2   4  871.10   59.98
   4  -2  -4  896.00   57.65
   4  -2  -4  912.93   49.68
   4  -2  -4  887.85   38.67
   4  -2  -4  935.62   58.93
  -4   2   4  914.26   42.38
   4  -2  -4  838.66   57.42
   4  -2  -4  906.77   62.53
   4  -2  -3  193.06   24.88
   4  -2  -3  157.62   24.05
   4  -2  -3  137.60   15.14
  -4   2   3  159.65   17.91
  -4   2   3  146.06   23.88
   4  -2  -3  171.20   24.36
   4  -2  -3  175.02   25.96
   4  -2  -3  170.81   27.41
   4  -2  -2  237.89   21.53
  -4   2   2  273.33   24.74
   4  -2  -2  261.15   30.47
   4  -2  -2  237.27   30.20
   4  -2  -2  214.04   23.98
  -4   2   1 4176.65  148.49
   4  -2  -1 4310.65  147.35
   4  -2  -1 3996.40  125.99
  -4   2   1 3981.29  129.93
   4  -2   0 3229.59  122.50
  -4   2   0 3140.06  128.50
   4  -2   0 3211.88  127.91
  -4   2   0 3112.73  120.29
   4  -2   0 3055.18  107.62
  -4   2   0 2875.60  109.45
  -4   2  -1   27.28   12.25
   4  -2   1   17.10    9.18
   4  -2   1   36.04   11.26
  -4   2  -1    0.62    7.59
   4  -2   1   23.06    9.73
  -4   2  -1   26.61   10.42
   4  -2   2  239.35   28.38
   4  -2   2  206.28   18.57
  -4   2  -2  236.79   29.93
   4  -2   2  182.91   26.10
   4  -2   2  247.58   27.63
  -4   2  -2  226.42   35.12
  -4   2  -2  203.44   27.31
   4  -2   2  199.35   29.83
   4  -2   3 1771.12   83.27
   4  -2   3 1684.72   95.82
  -4   2  -3 1624.39   84.60
   4  -2   3 1675.03   80.95
   4  -2   3 1690.57   69.39
  -4   2  -3 1578.40   84.05
   4  -2   3 1591.85   80.13
   4  -2   4  450.87   40.58
  -4   2  -4  422.82   42.22
   4  -2   4  426.78   35.43
  -4   2  -4  418.66   41.94
   4  -2   4  461.84   39.98
   4  -2   4  328.27   33.69
  -4   2  -5  721.98   59.01
   4  -2   5  792.49   56.40
  -4   2  -5  700.16   57.45
   4  -2   5  699.16   52.14
   4  -2   5  689.55   48.60
   4  -2   5  680.26   49.74
   4  -2   6   21.72    9.73
   4  -2   6   24.63   10.84
  -4   2  -6    8.86    8.19
   4  -2   6   31.24   13.30
  -4   2  -6    6.92    4.68
   4  -2   6   18.55    8.21
   4  -2   7   39.71   11.12
   4  -2   7   39.76   16.38
  -4   2  -7   46.75   16.43
   4  -2   7   79.87   19.10
  -4   2  -7   49.73   17.10
   4  -2   7   65.02   14.87
   4  -2   8  736.34   60.83
   4  -2   8  774.55   54.05
   4  -2   8  721.00   67.56
  -4   2  -8  739.85   64.91
   4  -2   8  791.78   49.07
   4  -2   9  107.04   24.92
  -4   2  -9  119.61   26.35
   4  -2   9  131.82   17.02
   4  -2  10  -15.67   22.10
   4  -2  10    9.68    8.68
   4  -2  11   34.24   13.69
   4  -2  12  106.53   25.42
   4  -2  12   94.57   24.76
   4  -2  13  272.14   43.24
  -4   1  14    0.39   11.16
  -4   1  13   30.70   18.98
   4  -1 -13   45.77   30.09
  -4   1  12   -9.82   10.62
   4  -1 -12   37.73   24.36
  -4   1  11  150.20   33.63
   4  -1 -11  162.49   45.05
   4  -1 -11  197.34   19.10
   4  -1 -10   21.69   19.12
   4  -1 -10   10.49    7.40
  -4   1  10   -0.45    6.97
   4  -1 -10    7.25    5.17
   4  -1  -9  408.92   36.69
  -4   1   9  378.31   47.27
   4  -1  -9  325.45   30.29
   4  -1  -9  385.65   35.23
   4  -1  -9  254.12   49.28
   4  -1  -8  321.57   29.98
   4  -1  -8  338.92   33.18
   4  -1  -8  276.26   48.07
   4  -1  -8  304.72   35.67
  -4   1   8  348.90   43.09
   4  -1  -8  330.28   31.39
   4  -1  -7   -0.42    4.40
  -4   1   7    4.83    2.27
   4  -1  -7    8.39    9.69
   4  -1  -7    5.01    5.49
  -4   1   7   15.59   13.74
   4  -1  -7   -0.11    5.52
  -4   1   7   -4.31    5.89
   4  -1  -7    1.81    3.89
   4  -1  -6 1254.05   56.38
   4  -1  -6 1269.81   89.13
   4  -1  -6 1332.18   70.76
  -4   1   6 1236.19   46.42
  -4   1   6 1308.69   80.73
   4  -1  -6 1245.39   70.60
  -4   1   6 1285.12   71.88
   4  -1  -6 1265.68   66.82
   4  -1  -5  482.17   25.39
   4  -1  -5  499.24   49.49
   4  -1  -5  545.45   42.99
  -4   1   5  422.24   26.43
   4  -1  -5  484.39   40.97
  -4   1   5  451.98   40.63
   4  -1  -5  466.48   38.97
   4  -1  -4  276.11   20.29
   4  -1  -4  307.40   34.74
  -4   1   4  261.49   21.43
   4  -1  -4  234.40   28.56
  -4   1   4  309.88   32.92
   4  -1  -4  246.32   28.70
   4  -1  -3  456.75   28.78
  -4   1   3  452.16   30.39
  -4   1   3  433.62   39.05
   4  -1  -3  457.07   38.83
   4  -1  -3  482.66   40.75
   4  -1  -3  449.35   37.44
   4  -1  -2 1253.38   56.69
   4  -1  -2 1314.03   69.08
  -4   1   2 1296.98   58.75
   4  -1  -2 1367.49   57.81
   4  -1  -2 1476.65   74.71
  -4   1   2 1403.38   74.48
   4  -1  -1  450.10   23.05
   4  -1  -1  463.71   38.94
  -4   1   1  395.40   39.35
   4  -1  -1  457.46   39.90
  -4   1   1  447.58   33.35
   4  -1  -1  455.05   32.39
   4  -1   0 1493.92   74.25
  -4   1   0 1401.31   81.08
   4  -1   0 1490.94   76.45
   4  -1   0 1440.38   66.03
   4  -1   1  354.10   33.46
  -4   1  -1  296.15   32.69
  -4   1  -1  365.27   41.54
   4  -1   1  361.32   35.43
  -4   1  -1  349.75   32.82
   4  -1   1  322.93   30.39
   4  -1   2   64.83   14.31
  -4   1  -2   77.50   16.81
   4  -1   2   92.30   17.38
  -4   1  -2   84.87   16.23
   4  -1   2   72.25   16.93
  -4   1  -3 2140.82   97.52
   4  -1   3 2121.42   93.61
  -4   1  -3 2052.23   95.51
   4  -1   3 2165.06   91.57
   4  -1   3 2101.73   91.31
  -4   1  -3 2162.37   91.79
   4  -1   3 2034.94  102.60
  -4   1  -4  588.75   49.82
   4  -1   4  649.63   49.15
   4  -1   4  635.77   45.66
  -4   1  -4  597.13   47.91
   4  -1   4  617.75   45.28
  -4   1  -4  649.87   47.55
   4  -1   4  702.92   46.02
   4  -1   5  101.39   17.97
   4  -1   5   72.46   16.92
   4  -1   5  107.18   18.24
  -4   1  -5  113.81   20.49
  -4   1  -5  116.47   22.84
  -4   1  -5   83.05   17.50
  -4   1  -6    0.08    4.30
   4  -1   6    3.67    4.44
   4  -1   6   19.04    8.10
  -4   1  -6   10.77    8.36
   4  -1   6    4.48    4.43
  -4   1  -7  474.47   51.20
   4  -1   7  497.07   46.84
   4  -1   7  458.37   38.01
   4  -1   7  458.32   35.44
  -4   1  -7  458.52   43.89
   4  -1   8  766.48  100.66
   4  -1   8  634.87   44.58
   4  -1   8  726.43   59.24
  -4   1  -8  573.26   51.22
   4  -1   8  658.84   40.29
   4  -1   9   84.65   35.70
   4  -1   9   43.39   15.55
   4  -1  10   89.00   40.17
   4  -1  10   73.42   19.68
   4  -1  11   14.33   10.62
   4  -1  11   15.21   10.46
   4  -1  12  309.19   43.27
  -4   0  14   71.67   27.70
  -4   0  13   42.46   21.55
  -4   0  12  127.06   30.92
   4   0 -11  439.56   35.94
   4   0 -11  563.60   35.87
  -4   0  11  551.17   62.04
   4   0 -10  159.78   41.82
   4   0 -10  128.45   19.27
  -4   0  10  124.30   28.43
   4   0 -10  155.85   19.74
   4   0  -9   76.85   10.91
  -4   0   9   96.51   11.58
  -4   0   9   71.39    8.41
   4   0  -9  105.91   17.15
  -4   0   9  107.65   19.80
  -4   0   9   72.21   20.45
   4   0  -9  116.39   19.09
   4   0  -9  113.57   33.09
  -4   0   8  162.12   32.88
   4   0  -8  168.30   36.86
  -4   0   8  191.17   25.88
   4   0  -8  137.20   20.35
  -4   0   8  186.07   15.45
   4   0  -8  194.25   27.65
  -4   0   8  213.73   33.66
   4   0  -8  168.01   16.85
   4   0  -7  766.64   49.48
   4   0  -7  739.00   37.25
   4   0  -7  707.04   69.98
  -4   0   7  787.09   67.15
  -4   0   7  766.05   35.93
   4   0  -7  693.56   53.02
  -4   0   7  798.50   61.84
  -4   0   7  800.95   54.35
  -4   0   6  330.21   34.06
   4   0  -6  285.37   40.54
  -4   0   6  361.44   41.64
  -4   0   6  315.05   22.68
   4   0  -6  284.90   31.52
   4   0  -6  335.77   32.22
  -4   0   5    1.08    5.61
   4   0  -5    7.29    8.79
  -4   0   5   18.09    6.59
   4   0  -5   20.69    8.63
   4   0  -5    8.87    5.11
  -4   0   5   12.68    6.87
  -4   0   4  840.54   54.58
  -4   0   4  874.07   53.72
   4   0  -4  879.80   41.10
   4   0  -4  773.17   56.07
  -4   0   4  804.23   42.23
   4   0  -4  875.64   54.91
   4   0  -4  903.23   54.18
   4   0  -3 1423.75   58.33
   4   0  -3 1502.82   72.70
  -4   0   3 1459.52   61.75
   4   0  -3 1404.43   71.09
  -4   0   3 1421.20   62.54
  -4   0   2  383.13   37.55
   4   0  -2  385.87   28.64
   4   0  -2  359.78   33.64
  -4   0   2  385.33   30.15
   4   0  -2  388.82   34.86
  -4   0   2  382.08   23.60
   4   0  -1 1522.35   66.19
  -4   0   1 1487.28   81.46
   4   0  -1 1521.20   74.50
   4   0  -1 1664.68   77.08
   4   0   0   74.12   14.36
  -4   0   0   76.33   17.85
   4   0   0   71.80   15.06
   4   0   0  116.62   19.73
  -4   0  -1  935.78   58.88
  -4   0  -1 1024.84   72.34
   4   0   1  996.33   55.70
   4   0   1 1001.89   57.30
   4   0   1 1112.75   60.69
   4   0   2 1169.79   64.72
  -4   0  -2 1196.81   58.30
   4   0   2 1212.11   63.76
  -4   0  -2 1065.81   49.78
  -4   0  -2 1106.10   64.81
   4   0   2 1135.00   62.71
  -4   0  -3   61.64   15.13
   4   0   3   71.34   15.39
  -4   0  -3   78.39   15.74
   4   0   3   58.83   14.32
  -4   0  -3   62.96   14.48
  -4   0  -3   83.06   14.13
   4   0   3   79.95   17.16
  -4   0  -4  161.85   20.46
  -4   0  -4  178.12   26.60
   4   0   4  232.63   28.63
  -4   0  -4  187.02   27.78
  -4   0  -4  201.88   27.02
   4   0   4  184.38   23.72
  -4   0  -5   15.64    8.32
   4   0   5   26.56   12.31
   4   0   5   18.98    7.83
  -4   0  -5    6.82    6.29
   4   0   5   22.73    8.49
  -4   0  -5   25.45    9.01
  -4   0  -6 1095.83   58.00
   4   0   6 1001.65   57.77
  -4   0  -6  924.90   78.13
  -4   0  -6 1047.65   73.99
   4   0   6 1118.22   69.53
  -4   0  -6 1016.26   62.28
   4   0   6 1111.61   58.00
   4   0   7  515.66   83.15
   4   0   7  537.71   40.18
  -4   0  -7  507.61   52.48
   4   0   7  501.65   46.63
  -4   0  -7  474.04   37.44
   4   0   7  528.85   36.76
   4   0   8   26.84   10.86
  -4   0  -8   26.61    9.45
   4   0   8   36.05   27.55
   4   0   8   35.42    8.54
   4   0   9  -13.30   22.86
   4   0   9   -3.51    5.60
   4   0  10   51.73   16.06
   4   0  10   36.11   14.94
   4   0  11  312.54   40.08
   4   0  11  275.40   39.25
  -4  -1  14   98.05   31.86
  -4  -1  13   46.93   20.96
  -4  -1  12  311.22   48.75
   4   1 -12  284.86   40.18
   4   1 -11  124.13   18.76
  -4  -1  11   84.96   10.69
  -4  -1  11   92.43   24.94
  -4  -1  11   86.69   12.75
  -4  -1  11   95.54   18.46
   4   1 -10  229.38   25.07
  -4  -1  10  209.80   18.27
  -4  -1  10  224.40   23.03
  -4  -1  10  220.39   36.23
  -4  -1  10  204.24   27.19
  -4  -1   9  215.76   41.11
   4   1  -9  169.54   22.37
  -4  -1   9  148.52   27.53
  -4  -1   9  150.18   15.81
  -4  -1   8  168.27   17.41
   4   1  -8  158.15   25.18
   4   1  -8  174.32   14.68
  -4  -1   8  249.26   40.78
  -4  -1   8  177.41   29.45
   4   1  -8  133.07   23.67
   4   1  -8  176.49   22.88
  -4  -1   7  559.14   33.62
  -4  -1   7  614.99   59.19
   4   1  -7  667.38   50.31
   4   1  -7  568.04   42.58
  -4  -1   6 1144.56   76.08
  -4  -1   6 1126.49   50.67
   4   1  -6 1047.57   62.81
   4   1  -6 1098.04   61.47
  -4  -1   5 1241.46   73.05
  -4  -1   5 1182.21   53.27
   4   1  -5 1052.83   61.06
   4   1  -5 1099.23   61.90
   4   1  -4  178.27   18.29
  -4  -1   4  166.80   19.05
  -4  -1   4  196.63   25.45
   4   1  -4  217.42   24.96
  -4  -1   4  164.65   23.70
   4   1  -4  167.04   23.06
   4   1  -3  209.14   20.90
  -4  -1   3  238.39   24.25
  -4  -1   3  255.49   24.06
   4   1  -3  211.24   24.59
   4   1  -3  241.67   27.30
   4   1  -2 1489.33   84.46
  -4  -1   2 1634.57   82.06
  -4  -1   2 1579.07   61.40
   4   1  -2 1710.52   74.40
   4   1  -2 1574.77   76.23
   4   1  -2 1598.32   67.15
   4   1  -1  551.18   49.73
  -4  -1   1  690.65   52.72
   4   1  -1  685.45   42.19
   4   1  -1  672.77   43.70
   4   1  -1  652.48   45.65
  -4  -1   0  151.50   28.09
   4   1   0  103.78   16.54
   4   1   0  111.60   17.54
   4   1   0   89.32   16.47
  -4  -1   0  116.07   19.51
  -4  -1  -1  340.05   34.17
   4   1   1  290.03   28.54
  -4  -1  -1  333.19   40.91
   4   1   1  289.80   27.62
  -4  -1  -1  325.18   23.33
   4   1   1  320.25   31.53
   4   1   2 1275.32   63.14
  -4  -1  -2 1288.53   61.53
   4   1   2 1416.57   70.08
  -4  -1  -2 1353.85   71.94
   4   1   2 1350.79   68.27
  -4  -1  -2 1380.30   73.60
   4   1   3  697.74   48.76
  -4  -1  -3  650.64   48.46
  -4  -1  -3  666.33   50.14
   4   1   3  655.10   45.74
  -4  -1  -3  608.05   46.98
  -4  -1  -4   70.59   17.13
   4   1   4   61.91   15.54
  -4  -1  -4   60.59   17.10
   4   1   4   54.65   12.27
  -4  -1  -4   94.31   18.23
   4   1   4   76.61   36.78
   4   1   5  144.88   45.36
   4   1   5  136.57   22.35
  -4  -1  -5  118.48   23.26
   4   1   5  175.88   22.01
  -4  -1  -5  126.03   21.36
   4   1   6    3.74    5.29
  -4  -1  -6   16.50    8.74
  -4  -1  -6   32.63   14.23
   4   1   6    6.39    6.19
   4   1   6   22.24    8.42
  -4  -1  -6   16.71    8.90
   4   1   6    3.87   16.10
  -4  -1  -7  265.94   49.74
   4   1   7  268.32   27.01
   4   1   7  349.67   76.09
   4   1   7  247.94   32.87
  -4  -1  -7  261.68   28.92
   4   1   8   21.34   12.52
  -4  -1  -8   48.63   21.38
   4   1   8   30.13   26.80
   4   1   9    6.96    5.89
  -4  -1  -9   23.69   19.01
   4   1   9   19.19    9.19
   4   1   9   15.50   22.17
   4   1  10  148.99   52.13
   4   1  10  192.30   30.26
  -4  -2  14    8.64   12.19
  -4  -2  13   32.40   17.97
  -4  -2  12  231.08   40.49
   4   2 -12  163.01   34.49
  -4  -2  12  187.96   24.07
  -4  -2  11   95.55   17.22
  -4  -2  11   98.15   25.15
  -4  -2  11   69.79   11.91
   4   2 -10  174.80   23.29
  -4  -2  10  162.57   30.88
  -4  -2  10  149.80   17.86
  -4  -2   9  399.66   30.04
   4   2  -9  446.16   30.14
   4   2  -9  408.05   19.32
  -4  -2   9  442.98   58.36
  -4  -2   9  418.11   46.53
   4   2  -9  456.83   38.24
  -4  -2   8  120.30   30.10
   4   2  -8  118.42   19.95
   4   2  -8  124.69   23.01
  -4  -2   8   89.71   20.67
   4   2  -8  153.85   29.08
  -4  -2   8  141.40   17.37
  -4  -2   7 1238.38   57.25
   4   2  -7 1091.96   81.42
  -4  -2   7 1407.13   94.17
   4   2  -7 1338.40   72.58
  -4  -2   7 1203.05   74.71
   4   2  -7 1224.91   66.84
  -4  -2   6  137.61   17.39
   4   2  -6  121.13   28.40
  -4  -2   6  156.13   29.09
  -4  -2   6  156.61   24.35
   4   2  -6  148.29   22.10
   4   2  -6  137.62   21.00
  -4  -2   5   75.99   18.68
  -4  -2   5  103.35   15.49
  -4  -2   5   95.80   18.73
   4   2  -5  100.90   17.14
   4   2  -5   90.81   17.19
  -4  -2   4 2068.60   97.04
  -4  -2   4 2381.62   98.82
   4   2  -4 2050.30   86.53
  -4  -2   4 2278.46   86.38
   4   2  -4 2252.72   83.57
   4   2  -4 2266.72   95.54
   4   2  -3 1015.44   51.66
  -4  -2   3 1006.58   57.98
   4   2  -3 1041.72   54.45
   4   2  -3 1004.17   59.60
   4   2  -3  981.83   66.19
   4   2  -2 1177.45   57.70
   4   2  -2 1136.75   56.54
   4   2  -2 1144.72   63.73
   4   2  -2 1155.47   72.74
  -4  -2   2 1138.29   66.97
   4   2  -1  478.60   35.94
  -4  -2   1  426.03   41.53
   4   2  -1  406.97   31.67
   4   2  -1  376.09   34.76
  -4  -2   0 2125.91   97.25
   4   2   0 2213.78   89.58
  -4  -2   0 2118.47  107.08
   4   2   0 2205.02   93.70
   4   2   0 2298.11   85.56
  -4  -2  -1  630.69   48.46
   4   2   1  608.21   43.70
   4   2   1  652.25   82.84
  -4  -2  -1  580.25   55.66
  -4  -2  -1  616.38   46.25
   4   2   1  625.07   45.83
   4   2   1  566.48   35.18
  -4  -2  -2  986.96   62.56
   4   2   2 1107.28  111.81
   4   2   2  976.27   58.14
  -4  -2  -2  941.78   60.81
   4   2   2  963.23   58.08
  -4  -2  -2 1105.95   60.90
   4   2   2  953.92   45.94
   4   2   3   99.49   17.99
  -4  -2  -3   97.77   19.22
  -4  -2  -3   87.79   19.17
   4   2   3   87.46   36.57
   4   2   3   63.22   14.23
  -4  -2  -3   58.31   14.84
   4   2   4   19.22    9.17
  -4  -2  -4   17.82    9.32
   4   2   4   22.41    9.27
  -4  -2  -4   12.44    6.64
   4   2   4   39.93   28.84
   4   2   5  920.21  119.64
   4   2   5  837.26   57.38
  -4  -2  -5  750.93   69.48
  -4  -2  -5  845.64   63.09
   4   2   5  748.36   49.51
  -4  -2  -5  693.97   51.91
  -4  -2  -6  606.05   55.23
   4   2   6  453.80   55.83
  -4  -2  -6  599.30   67.60
   4   2   6  576.62   99.06
   4   2   6  578.97   48.80
  -4  -2  -6  591.18   46.50
   4   2   7   -1.47   17.98
  -4  -2  -7   21.93   12.39
   4   2   7   30.75   12.36
   4   2   7   33.21   10.68
   4   2   7   50.94   19.35
   4   2   8   -4.35    6.50
  -4  -2  -8   -0.10   12.75
   4   2   8    0.03    4.61
   4   2   8   26.10   31.44
   4   2   9   72.88   17.52
  -4  -2  -9   50.97   25.96
  -4  -2 -10  125.52   41.76
  -4  -3  14  103.25   33.12
   4   3 -13   98.47   25.03
  -4  -3  13  150.08   24.21
  -4  -3  13  205.60   40.05
   4   3 -12  251.91   46.21
  -4  -3  12  230.12   31.19
  -4  -3  12  277.58   43.75
   4   3 -11   -1.24   15.67
  -4  -3  11   12.26   13.58
  -4  -3  11    5.01    6.76
  -4  -3  10   -3.16    9.32
  -4  -3  10   19.15    9.63
   4   3  -9  201.35   25.70
   4   3  -9  199.62   26.47
  -4  -3   9  173.00   36.43
  -4  -3   9  203.16   32.19
  -4  -3   9  125.30   22.66
   4   3  -8  360.61   48.43
   4   3  -8  392.67   37.50
  -4  -3   8  434.24   55.86
   4   3  -8  342.65   37.65
  -4  -3   8  350.69   40.25
  -4  -3   8  400.57   40.47
  -4  -3   7  267.59   42.14
   4   3  -7  223.83   27.91
  -4  -3   7  227.44   30.09
   4   3  -7  242.13   29.43
  -4  -3   7  185.76   27.72
   4   3  -7  220.62   42.56
  -4  -3   6   82.17   22.25
  -4  -3   6   83.00   18.16
   4   3  -6  114.61   18.94
  -4  -3   6   83.23   17.58
   4   3  -6  115.45   20.10
   4   3  -6  130.76   34.79
   4   3  -5  372.37   32.64
  -4  -3   5  361.24   35.98
  -4  -3   5  370.99   38.23
   4   3  -5  410.37   37.73
   4   3  -5  401.81   58.44
  -4  -3   4  342.54   33.41
   4   3  -4  372.12   30.62
   4   3  -4  291.32   31.56
   4   3  -4  426.06   60.77
   4   3  -3 2130.54  103.40
   4   3  -3 2112.08  143.64
   4   3  -3 2059.09   84.49
  -4  -3   3 2093.40   87.22
   4   3  -3 2193.46   81.05
   4   3  -3 1977.06   91.80
   4   3  -2  106.48   33.55
   4   3  -2  181.13   24.77
   4   3  -2  144.34   20.07
   4   3  -2  119.83   15.76
  -4  -3   2  168.99   25.02
   4   3  -2  107.06   22.03
   4   3  -1  559.86   41.37
   4   3  -1  514.84   76.27
  -4  -3   1  518.57   46.31
   4   3  -1  570.32   34.74
   4   3  -1  566.68   44.63
  -4  -3   1  557.11   46.55
   4   3   0 1267.85   70.62
  -4  -3   0 1379.68   76.73
   4   3   0 1365.72   68.41
  -4  -3   0 1240.24   79.71
   4   3   0 1328.64  123.61
  -4  -3   0 1354.43   72.02
   4   3   0 1272.48   55.19
   4   3   0 1510.56   61.58
   4   3   1 1221.95   65.36
  -4  -3  -1 1111.68   79.44
   4   3   1 1506.17  135.35
  -4  -3  -1 1187.00   68.97
   4   3   1 1144.62   66.71
  -4  -3  -1 1217.28   72.13
   4   3   1 1165.82   48.23
  -4  -3  -2  998.21   65.35
   4   3   2  972.15   58.96
   4   3   2  965.25  114.70
  -4  -3  -2  898.38   60.44
   4   3   2  912.94   58.70
  -4  -3  -2  947.16   63.22
  -4  -3  -3  265.78   33.01
   4   3   3  305.33   67.47
   4   3   3  279.88   31.22
   4   3   3  293.16   32.22
  -4  -3  -3  301.92   35.00
   4   3   4  803.79  119.58
   4   3   4  685.51   51.04
  -4  -3  -4  704.09   56.26
  -4  -3  -4  785.28   57.20
  -4  -3  -4  591.53   58.78
   4   3   5 1004.21   64.76
   4   3   5  885.31   86.08
  -4  -3  -5 1005.80   84.48
  -4  -3  -5 1016.21   71.29
  -4  -3  -5  948.47   63.87
   4   3   5 1166.66  147.18
   4   3   6  280.75   33.46
   4   3   6  246.40   69.75
  -4  -3  -6  201.54   40.58
   4   3   6  187.24   37.49
  -4  -3  -6  224.60   29.15
   4   3   7    6.13    8.58
  -4  -3  -7   16.98   12.35
   4   3   8  169.06   27.20
   4   3   8  201.27   64.42
  -4  -3  -8  221.26   49.74
   4   3   9  356.16   82.97
  -4  -3  -9  280.22   61.29
  -4  -3 -10  109.31   41.33
  -4  -4  15   60.25   25.77
  -4  -4  14  160.76   37.97
  -4  -4  13   93.61   21.97
  -4  -4  13  114.00   30.47
   4   4 -12   18.90   18.86
  -4  -4  12   20.43   15.03
  -4  -4  12   13.98   10.04
  -4  -4  12   20.95    8.71
   4   4 -11   38.76   20.35
  -4  -4  11   34.99   11.46
  -4  -4  11   49.36   18.79
  -4  -4  11   27.13   12.80
  -4  -4  10  214.19   30.49
   4   4 -10  202.24   21.09
  -4  -4  10  197.44   24.96
  -4  -4  10  243.83   36.79
   4   4 -10  197.78   45.27
   4   4  -9   22.70    9.86
  -4  -4   9   66.10   26.73
  -4  -4   9   42.11   12.31
  -4  -4   9   58.31   18.17
  -4  -4   9   34.46   12.39
   4   4  -8   75.65   24.88
  -4  -4   8   32.08   18.36
  -4  -4   8   51.87   12.96
  -4  -4   8   68.45   17.60
   4   4  -8   69.11   16.37
  -4  -4   8   90.57   20.87
  -4  -4   7   71.59   14.83
   4   4  -7   86.01   19.06
  -4  -4   7  103.09   20.65
   4   4  -7   99.03   19.14
  -4  -4   7   72.60   17.53
   4   4  -7   90.73   32.54
   4   4  -6  251.02   50.99
   4   4  -6  158.48   25.18
  -4  -4   6  189.96   28.47
  -4  -4   6  134.00   20.15
   4   4  -6  192.71   24.10
  -4  -4   6  181.58   25.73
   4   4  -6  177.58   28.49
   4   4  -5  317.78   57.77
  -4  -4   5  262.81   28.14
   4   4  -5  217.21   24.68
  -4  -4   5  201.63   26.27
   4   4  -5  225.31   29.52
  -4  -4   5  253.77   32.73
   4   4  -4  172.48   25.89
  -4  -4   4  157.29   21.97
   4   4  -4  162.07   19.28
   4   4  -4  171.94   26.81
   4   4  -4  163.90   44.96
   4   4  -3  337.57   38.46
   4   4  -3  403.52   70.33
  -4  -4   3  297.99   28.70
   4   4  -3  318.67   25.68
   4   4  -3  372.92   37.85
   4   4  -2    5.32    6.42
  -4  -4   2    2.28    8.29
   4   4  -2    9.71    4.31
  -4  -4   2    5.64    5.26
   4   4  -1  522.00   40.87
  -4  -4   1  581.08   45.41
   4   4  -1  567.67   87.24
  -4  -4   1  431.19   42.85
   4   4  -1  522.59   29.03
  -4  -4   1  509.21   46.16
   4   4  -1  513.27   44.94
   4   4   0 1547.98   77.57
  -4  -4   0 1616.73   92.80
   4   4   0 1677.12  154.21
  -4  -4   0 1671.03   83.91
   4   4   0 1675.71   56.62
  -4  -4   0 1655.73   88.98
   4   4   0 1580.03   84.04
  -4  -4  -1  363.31   40.01
   4   4   1  391.14   39.30
   4   4   1  386.65   36.01
   4   4   1  613.17   99.54
  -4  -4  -1  350.50   43.27
  -4  -4  -1  416.39   40.35
   4   4   1  360.00   21.93
   4   4   1  356.54   19.76
   4   4   2  256.97   29.74
  -4  -4  -2  336.60   37.40
   4   4   2  273.13   19.22
  -4  -4  -2  293.50   35.84
   4   4   3  877.21  126.50
   4   4   3  835.29   57.25
   4   4   3  737.73   85.18
  -4  -4  -3  749.30   58.21
  -4  -4  -3  912.20   71.38
  -4  -4  -3  724.75   58.80
  -4  -4  -4  922.54   66.39
   4   4   4 1208.18  153.89
   4   4   4 1022.95   65.51
   4   4   4  961.59   96.15
  -4  -4  -4  943.61   68.22
   4   4   4 1012.36   40.24
  -4  -4  -4 1099.34   85.66
  -4  -4  -5  542.93   64.91
   4   4   5  639.99   51.01
   4   4   5  620.33  110.34
   4   4   5  606.26   73.85
   4   4   5  567.23   31.11
  -4  -4  -5  571.29   50.44
   4   4   6   61.84   16.24
   4   4   6   67.68   44.00
   4   4   6   58.68   24.41
  -4  -4  -6   62.24   23.39
   4   4   7  360.34   39.40
   4   4   7  425.52   91.94
  -4  -4  -7  385.78   62.84
   4   4   8  289.07   35.54
   4   4   8  238.47   66.80
  -4  -4  -8  267.44   56.07
  -4  -4  -9  488.21   80.24
  -4  -5  15  365.62   59.45
  -4  -5  14  465.39   54.28
   4   5 -14  602.07   73.34
  -4  -5  14  564.14   70.01
  -4  -5  13  168.18   31.60
  -4  -5  13  138.87   32.71
   4   5 -13  160.35   38.47
  -4  -5  12   83.63   18.29
   4   5 -12  142.31   40.26
  -4  -5  12   88.01   25.16
  -4  -5  12  116.07   23.87
  -4  -5  11  201.80   31.63
   4   5 -11  151.33   16.69
  -4  -5  11  133.61   22.40
  -4  -5  11  141.87   30.24
   4   5 -11  119.75   39.88
   4   5 -10  230.93   51.97
  -4  -5  10  199.60   27.01
   4   5 -10  199.64   26.94
  -4  -5  10  193.76   33.33
  -4  -5  10  252.91   35.90
  -4  -5   9  316.96   34.01
   4   5  -9  306.31   42.11
  -4  -5   9  313.42   53.23
  -4  -5   9  345.72   42.02
  -4  -5   9  347.47   41.78
   4   5  -9  221.74   51.18
   4   5  -8   -3.51   13.26
  -4  -5   8  -14.03    8.99
  -4  -5   8    3.10    5.04
  -4  -5   8    2.83    7.16
   4   5  -8   -7.77   14.61
  -4  -5   7   46.54   12.80
  -4  -5   7   45.61   16.09
  -4  -5   7   34.81   14.96
   4   5  -7   31.97   19.93
  -4  -5   6  141.74   21.70
  -4  -5   6  135.87   26.02
  -4  -5   6  171.17   25.35
   4   5  -6  163.36   46.67
  -4  -5   5   35.64   12.36
  -4  -5   5   25.74   10.60
   4   5  -5   13.65    7.34
   4   5  -5   19.32    7.82
  -4  -5   5   28.16   10.54
   4   5  -5   50.11   31.80
   4   5  -4   69.96   31.50
   4   5  -4   76.84   19.61
  -4  -5   4   83.66   17.19
   4   5  -4   67.08   12.18
  -4  -5   4  100.04   17.36
   4   5  -4   60.63   16.58
  -4  -5   3  164.77   24.17
   4   5  -3  136.05   23.87
  -4  -5   3  140.24   25.72
  -4  -5   3  155.39   19.48
   4   5  -3  169.57   17.04
   4   5  -3   52.67   34.46
   4   5  -2  250.01   59.34
  -4  -5   2  203.49   30.70
  -4  -5   2  193.89   26.47
   4   5  -2  163.18   15.30
  -4  -5   2  155.74   23.80
  -4  -5   1  709.14   54.39
  -4  -5   1  736.17   54.25
   4   5  -1  720.12  107.18
   4   5  -1  639.58   27.55
  -4  -5   1  638.67   55.52
   4   5   0  -15.86   19.80
  -4  -5   0   32.82   14.00
  -4  -5   0    0.35    3.76
   4   5   0   42.02   25.73
  -4  -5   0    7.41    6.83
   4   5   1  160.90   52.44
  -4  -5  -1   83.80   22.02
  -4  -5  -1  110.85   21.25
   4   5   1   61.37   14.77
   4   5   1  109.37   34.15
  -4  -5  -1   86.61   20.38
   4   5   2  249.88   69.12
  -4  -5  -2  191.74   35.14
   4   5   2  200.89   27.73
  -4  -5  -2  230.13   32.07
   4   5   2  136.53   39.93
  -4  -5  -2  221.27   32.60
   4   5   3  308.76   34.98
   4   5   3  403.95   90.49
  -4  -5  -3  353.21   47.74
  -4  -5  -3  323.23   39.50
   4   5   3  322.37   59.71
   4   5   4  678.09  116.23
   4   5   4  545.98   47.58
  -4  -5  -4  619.85   56.40
  -4  -5  -4  550.63   63.90
   4   5   4  419.82   67.35
  -4  -5  -5  185.92   38.29
   4   5   5  216.39   65.96
   4   5   5  219.51   30.30
   4   5   5  178.07   40.44
  -4  -5  -6  248.95   49.35
   4   5   6  189.58   62.16
  -4  -5  -7  263.26   54.88
   4   5   7  435.14   90.89
  -4  -5  -8  691.78   93.87
   4   5   8  689.42  109.70
   4   6 -14  281.44   53.90
  -4  -6  14  275.74   44.63
  -4  -6  14  295.51   50.47
   4   6 -13  337.72   64.08
  -4  -6  13  438.70   58.28
   4   6 -12  545.02   31.49
  -4  -6  12  525.48   54.96
   4   6 -12  574.26   83.50
  -4  -6  12  592.34   64.58
   4   6 -11  614.67   44.60
   4   6 -11  510.38   80.27
  -4  -6  11  530.65   55.36
  -4  -6  11  600.07   62.19
   4   6 -10  496.27   49.51
  -4  -6  10  450.89   50.82
   4   6 -10  430.98   72.90
  -4  -6  10  563.35   55.92
   4   6  -9  509.53   58.56
  -4  -6   9  530.80   47.43
  -4  -6   9  567.74   54.26
   4   6  -9  530.18   80.93
  -4  -6   9  543.17   55.03
   4   6  -8  135.65   33.26
  -4  -6   8  198.92   27.99
  -4  -6   8  182.74   28.93
   4   6  -8  103.22   38.57
   4   6  -7    2.95    4.68
   4   6  -7    7.98   11.01
   4   6  -7   37.38   94.35
  -4  -6   7    4.53    3.55
  -4  -6   7    1.02    5.71
  -4  -6   7   -1.14    8.14
  -4  -6   6  307.03   34.78
   4   6  -6  341.68   64.07
  -4  -6   6  386.81   44.95
   4   6  -6  411.51   68.87
  -4  -6   6  395.90   38.24
  -4  -6   5  256.86   31.71
   4   6  -5  272.80   59.38
  -4  -6   5  258.21   29.18
   4   6  -5  245.27   54.80
  -4  -6   5  270.19   37.46
   4   6  -4   22.17   11.37
   4   6  -4    5.56   21.51
  -4  -6   4   24.02   11.92
  -4  -6   4   33.47   12.10
  -4  -6   4   26.64    9.01
   4   6  -4   37.88   24.15
  -4  -6   3  104.67   20.74
  -4  -6   3  106.81   23.72
   4   6  -3   74.60   29.73
   4   6  -3   10.63   18.49
   4   6  -2  100.84   42.73
  -4  -6   2   83.10   17.65
  -4  -6   2   91.11   19.53
   4   6  -2   83.10   32.09
  -4  -6   2   89.31   21.55
   4   6  -1   36.12   26.18
  -4  -6   1   43.25   13.91
  -4  -6   1   39.05   13.53
   4   6  -1   76.11   31.37
  -4  -6   1   37.64   17.01
  -4  -6   0   14.24    9.64
  -4  -6   0    7.75    8.54
   4   6   0   15.79   19.73
   4   6   0    7.19   16.43
   4   6   0    4.19    4.60
  -4  -6  -1   -3.39    7.13
   4   6   1   39.54   35.30
   4   6   1   18.53   19.32
  -4  -6  -1    2.18    6.47
  -4  -6  -2    9.67   11.21
   4   6   2   29.43   25.08
   4   6   2   20.35   29.85
  -4  -6  -2   -0.99   11.02
  -4  -6  -3  402.48   54.98
  -4  -6  -3  328.01   42.46
   4   6   3  316.78   61.62
   4   6   3  408.97   88.73
  -4  -6  -4  164.65   36.97
   4   6   4  173.30   43.87
   4   6   4  183.74   66.46
  -4  -6  -5   14.34   16.13
   4   6   5   13.58   13.16
   4   6   5   38.70   31.74
   4   6   6  236.41   69.58
  -4  -6  -6  331.93   59.26
   4   6   7  294.03   74.86
  -4  -6  -7  241.92   54.76
  -4  -7  15  270.56   47.02
   4   7 -14  202.40   47.14
  -4  -7  14  176.75   42.09
   4   7 -13  176.49   47.20
  -4  -7  13  217.30   40.74
   4   7 -12  558.09   41.82
  -4  -7  12  604.44   65.41
   4   7 -12  455.32   77.43
  -4  -7  11  947.73   77.89
   4   7 -11  828.00   62.45
   4   7 -11  755.47  101.45
  -4  -7  10  804.19   68.58
   4   7 -10  853.69   72.03
  -4  -7   9  188.55   31.20
   4   7  -9  198.19   38.93
   4   7  -9  149.27   46.43
   4   7  -8  652.98   57.50
   4   7  -8  593.30   73.64
  -4  -7   8  746.70   59.12
   4   7  -8  615.60   92.12
   4   7  -7 1355.46  137.44
  -4  -7   7 1633.72   86.26
   4   7  -7 1515.57  128.99
   4   7  -7 1501.35   88.40
  -4  -7   6  596.41   47.23
   4   7  -6  567.68   87.77
   4   7  -6  490.95   77.09
   4   7  -5  298.66   36.83
  -4  -7   5  391.69   35.54
   4   7  -5  272.16   60.52
   4   7  -5  278.81   61.38
   4   7  -4   32.50   30.26
   4   7  -4   33.20   29.18
  -4  -7   4    3.12    4.39
   4   7  -3   11.54   17.24
   4   7  -3  -48.75   30.03
   4   7  -2  432.47   76.53
   4   7  -2  344.73   74.36
   4   7  -1   21.84   22.04
  -4  -7   1   57.63   14.88
   4   7   0   21.28   24.47
   4   7   0    5.26   23.86
   4   7   0   14.80    5.83
  -4  -7   0   15.62    7.87
  -4  -7  -1   -0.79    6.11
   4   7   1   29.62   22.36
   4   7   1   -2.30   16.08
  -4  -7  -2   39.98   16.24
   4   7   2   72.74   44.08
   4   7   2   78.91   37.09
  -4  -7  -3   13.10   13.19
  -4  -7  -3   11.55   14.91
   4   7   3   12.23   17.21
   4   7   3   -5.50   16.72
  -4  -7  -4   60.19   24.70
   4   7   4   16.43   16.77
   4   7   4   94.31   48.12
   4   7   5   58.77   34.65
  -4  -7  -5   67.26   30.41
   4   7   6   16.64   23.48
  -4  -7  -6   28.99   20.23
  -4  -8  15   22.49   14.99
  -4  -8  14    8.33   11.55
   4   8 -14    4.11   18.06
  -4  -8  13   72.59   24.43
   4   8 -13   83.66   36.17
  -4  -8  12  403.43   53.51
   4   8 -12  387.86   75.09
   4   8 -12  398.69   41.16
  -4  -8  11  509.35   57.23
   4   8 -11  313.54   68.80
   4   8 -11  477.16   51.23
  -4  -8  10  504.43   54.42
   4   8 -10  483.13   85.92
   4   8 -10  499.01   59.54
  -4  -8   9  701.01   60.79
   4   8  -9  511.58   87.19
   4   8  -9  626.11   73.83
   4   8  -9  546.34   54.52
   4   8  -8  467.07   67.80
   4   8  -8  573.39   53.35
  -4  -8   8  482.03   47.07
   4   8  -8  447.53   83.88
   4   8  -7 1420.97  143.78
   4   8  -7 1328.59  123.73
  -4  -8   7 1344.00   78.57
   4   8  -6  805.41  109.20
  -4  -8   6  921.25   60.12
   4   8  -6  800.36  100.15
  -4  -8   5  277.97   29.64
   4   8  -5  291.44   64.22
   4   8  -5  332.73   72.10
   4   8  -4  928.55  116.49
  -4  -8   4  807.64   46.81
   4   8  -4  656.33   98.23
   4   8  -3  782.56  110.25
   4   8  -3  746.78  104.26
   4   8  -2  625.38   96.82
   4   8  -2  719.99  107.08
   4   8  -1   24.63   25.73
   4   8  -1   38.01   30.93
   4   8  -1   22.78    9.12
  -4  -8   1    2.10    5.68
   4   8   0   46.59   32.39
   4   8   0   16.82   20.68
  -4  -8   0   58.38   16.35
   4   8   1   47.24   36.27
   4   8   1   19.61   25.51
  -4  -8  -1   21.72   13.41
   4   8   2  189.56   58.49
  -4  -8  -2  165.61   31.17
   4   8   2  201.30   54.45
  -4  -8  -3   24.12   17.95
   4   8   3   22.85   22.59
  -4  -8  -3   71.11   22.76
   4   8   3   35.71   22.83
  -4  -8  -4   46.62   25.17
   4   8   4   12.68   21.20
  -4  -8  -5   34.88   21.35
   4   8   5    7.09   24.76
  -4  -9  16   16.31   20.18
  -4  -9  15   47.75   23.93
   4   9 -15   57.58   27.89
  -4  -9  14    7.70   14.17
   4   9 -14   13.92   22.26
  -4  -9  13  333.56   50.96
   4   9 -13  251.08   62.54
  -4  -9  12    5.41   10.61
   4   9 -12   35.82   15.62
  -4  -9  11   18.92   13.99
   4   9 -11   90.66   39.68
   4   9 -11   71.66   21.70
   4   9 -10    4.94    5.62
  -4  -9  10   -2.20    5.57
   4   9 -10   -1.86   17.58
   4   9 -10   17.74   15.37
   4   9  -9  680.64   79.94
   4   9  -9  574.91   55.56
   4   9  -9  585.58   95.17
  -4  -9   9  521.54   52.96
   4   9  -8  788.75   92.40
   4   9  -8  814.46   65.52
   4   9  -8  775.35  111.20
  -4  -9   8  936.19   67.72
   4   9  -7  360.66   65.40
   4   9  -7  325.18   72.83
  -4  -9   7  402.64   40.72
   4   9  -6  504.63   82.40
   4   9  -6  355.54   77.12
  -4  -9   6  576.33   46.60
   4   9  -5  369.72   72.05
  -4  -9   5  389.73   34.24
   4   9  -5  261.11   65.36
   4   9  -4 1166.55  131.48
   4   9  -4 1076.88  132.42
   4   9  -3 1266.50  139.83
   4   9  -3 1224.60  141.02
   4   9  -2   76.89   37.98
   4   9  -2  119.17   47.25
   4   9  -1  316.63   72.84
   4   9  -1  336.98   72.89
   4   9   0  453.53   89.76
   4   9   0  561.16   93.28
   4   9   1  282.50   72.49
   4   9   1  367.97   75.91
   4   9   2  132.36   52.50
   4   9   2  122.69   43.09
  -4  -9  -3    9.31   11.79
   4   9   3  -19.55   17.94
  -4  -9  -4   48.04   24.42
   4  10 -15   24.17   28.78
   4  10 -14  132.85   46.93
  -4 -10  14  101.58   29.39
   4  10 -13   -2.56   21.12
  -4 -10  13   52.83   22.25
   4  10 -12   13.98   10.37
   4  10 -12   26.96   24.12
  -4 -10  12   10.84   10.46
   4  10 -11   18.47   19.04
   4  10 -11   32.05   26.67
  -4 -10  11   11.11    8.59
   4  10 -10   -2.65    8.72
   4  10 -10   -6.98   20.24
  -4 -10  10    0.69    8.89
   4  10  -9  132.67   37.10
   4  10  -9  133.38   53.70
  -4 -10   9  170.90   30.66
   4  10  -8   78.24   33.32
   4  10  -8  149.90   52.17
  -4 -10   8   72.50   18.20
   4  10  -7  166.49   46.95
   4  10  -7  127.20   50.76
  -4 -10   7  139.96   24.38
   4  10  -6  152.77   48.33
   4  10  -6  203.97   59.40
  -4 -10   6  163.34   24.30
   4  10  -5  371.35   73.14
   4  10  -5  435.37   86.75
  -4 -10   5  343.92   30.74
   4  10  -4  549.47   98.44
   4  10  -4  453.43   83.67
   4  10  -3  452.75   86.11
   4  10  -3  506.12   91.68
   4  10  -2  289.08   69.88
   4  10  -2  135.70   49.07
   4  10  -1  434.68   85.72
   4  10  -1  375.37   78.52
   4  10   0  978.53  133.45
   4  10   0  853.44  118.00
   4  10   1  396.34   85.82
   4  10   1  396.51   77.75
   4  10   2   38.08   27.54
   4  11 -15  131.32   47.72
   4  11 -14  -61.71   33.51
  -4 -11  14   33.59   19.81
   4  11 -13  -12.50   17.30
  -4 -11  13    6.87    7.57
   4  11 -12    7.16   18.37
   4  11 -12    0.14   14.10
  -4 -11  12    4.02    9.30
   4  11 -11   20.53   13.22
  -4 -11  11    8.46   11.56
   4  11 -10    9.55   23.43
   4  11 -10   22.15   19.50
  -4 -11  10   13.39   10.12
   4  11  -9   29.87   29.14
   4  11  -9   14.48   22.42
  -4 -11   9   23.35   11.25
   4  11  -8  -11.82   19.17
   4  11  -8   -5.61   13.13
  -4 -11   8   -3.35    6.68
   4  11  -7   11.57   11.12
  -4 -11   7    1.73    4.79
   4  11  -6   43.91   27.42
   4  11  -6   53.49   34.61
   4  11  -5  207.36   57.59
   4  11  -5  259.57   70.36
   4  11  -4  115.91   45.73
   4  11  -4  116.71   48.45
   4  11  -3   -1.60   14.82
   4  11  -3  110.01   45.14
   4  11  -2  196.90   58.58
   4  11  -2  267.37   70.95
   4  11  -1  294.20   72.43
   4  11   0  417.29   83.02
   4  11   1  243.02   60.81
  -4 -12  13   89.85   27.90
   4  12 -12  -31.13   16.60
  -4 -12  12   16.93   10.48
   4  12 -11   30.91   21.95
   4  12 -11   79.82   27.97
  -4 -12  11   55.50   20.50
   4  12 -10   46.92   38.07
   4  12 -10    5.72   11.44
  -4 -12  10   74.84   21.62
   4  12  -9   -0.94   16.72
   4  12  -9   42.26   32.48
   4  12  -8   -0.38   14.26
   4  12  -8   37.12   36.31
   4  12  -7   13.91   13.57
   4  12  -7   50.71   32.84
   4  12  -6  -18.72   24.70
   4  12  -6   36.67   38.21
   4  12  -5  107.69   41.03
   4  12  -5  154.61   55.52
   4  12  -4   48.09   34.94
   4  12  -3   19.08   22.85
   4  13 -12  409.09   60.91
   4  13 -11   91.14   31.56
   4  13 -10  165.96   44.55
   4  13  -9   79.43   34.35
   5 -14   1   93.10   33.89
   5 -14   2  341.19   66.65
   5 -14   3  565.04   84.67
   5 -14   4  -33.65   22.10
   5 -14   5   27.12   17.93
   5 -13   0   35.04   21.26
  -5  13  -1  290.42   57.44
   5 -13   1  385.95   65.93
   5 -13   2   97.65   33.68
  -5  13  -2  123.19   38.27
   5 -13   3  121.17   37.51
  -5  13  -3   60.18   26.61
   5 -13   4  222.10   50.01
  -5  13  -4  230.66   51.05
   5 -13   5  143.06   39.94
  -5  13  -5  109.20   36.56
   5 -13   6  134.04   38.41
  -5  13  -6  149.91   42.69
   5 -13   7  327.65   63.51
  -5  13  -7  425.73   69.98
  -5  12   4  160.43   40.33
   5 -12  -4  174.36   50.43
  -5  12   3   21.53   16.81
   5 -12  -3   81.88   37.61
  -5  12   2  229.52   47.49
   5 -12  -2  236.43   61.40
   5 -12  -2  249.60   61.90
  -5  12   1   45.41   21.58
   5 -12  -1   19.71   13.08
   5 -12  -1   11.21   13.94
   5 -12   0   62.65   24.34
  -5  12   0   51.71   22.93
   5 -12   1  407.89   62.83
  -5  12  -1  375.82   61.48
  -5  12  -2  500.68   71.20
   5 -12   2  601.70   76.91
   5 -12   3   45.69   19.82
  -5  12  -3  131.59   36.39
   5 -12   4   96.16   30.68
  -5  12  -4  144.26   38.75
   5 -12   5  158.91   40.85
  -5  12  -5  154.62   39.19
   5 -12   6  169.48   42.25
  -5  12  -6   93.87   30.63
  -5  12  -7  211.79   45.04
   5 -12   7  188.10   45.03
  -5  12  -8    9.19   10.78
   5 -12   8   -4.67    8.56
  -5  12  -9   88.53   27.56
  -5  12  -9   86.84   30.36
   5 -12   9   70.25   30.22
  -5  12 -10  264.35   51.43
   5 -12  10  207.61   48.29
  -5  12 -11  100.19   31.95
   5 -12  11   99.79   34.30
  -5  11   5   72.62   26.13
   5 -11  -5   52.35   24.97
   5 -11  -5  118.11   39.22
  -5  11   4  150.55   35.48
   5 -11  -4  145.40   46.26
   5 -11  -4  142.12   42.77
  -5  11   3  237.70   45.82
   5 -11  -3  242.01   58.48
  -5  11   2   14.94   15.83
   5 -11  -2   32.22   15.14
   5 -11  -2   39.83   23.37
   5 -11  -2   20.60   18.52
  -5  11   1   44.64   20.09
   5 -11  -1   34.54   18.49
   5 -11  -1   55.06   31.71
   5 -11  -1   21.09   19.37
   5 -11   0  352.96   73.21
   5 -11   0  302.08   48.14
  -5  11   0  292.48   52.20
   5 -11   1  276.01   64.64
  -5  11  -1  355.74   56.59
   5 -11   2   76.56   25.79
  -5  11  -2   26.98   17.68
   5 -11   3    4.64   16.58
  -5  11  -3   30.28   18.10
   5 -11   4   95.15   29.70
  -5  11  -4   76.12   30.06
  -5  11  -4  151.69   27.60
   5 -11   5  352.17   58.56
  -5  11  -5  294.32   51.35
  -5  11  -5  373.79   45.38
   5 -11   6  234.64   48.39
  -5  11  -6  245.89   39.26
  -5  11  -6  267.28   49.63
   5 -11   7   -0.55   13.69
  -5  11  -7   10.32   13.21
  -5  11  -7    7.24   10.37
  -5  11  -8  100.75   30.57
   5 -11   8  104.58   34.72
   5 -11   8  111.76   36.07
  -5  11  -8  113.05   31.89
  -5  11  -9   70.45   27.69
   5 -11   9   85.84   29.20
   5 -11   9  118.38   38.45
   5 -11  10  115.96   36.58
   5 -11  10  109.69   33.29
  -5  11 -10  159.30   37.93
   5 -11  11  134.42   38.86
  -5  11 -11  121.64   32.35
  -5  11 -12   13.12   11.26
   5 -10  -6   39.13   18.39
   5 -10  -6    8.53   13.18
   5 -10  -5  294.10   60.39
   5 -10  -5  196.09   46.45
  -5  10   5  329.31   50.46
   5 -10  -5  287.31   65.79
   5 -10  -4  236.03   54.29
  -5  10   4  182.84   37.67
   5 -10  -4  185.78   45.23
   5 -10  -3  144.69   26.18
  -5  10   3  120.28   32.12
   5 -10  -3  126.30   40.52
   5 -10  -3  101.39   34.53
  -5  10   2  109.97   30.44
   5 -10  -2   71.75   36.95
   5 -10  -2   76.26   21.05
   5 -10  -2   44.93   25.06
   5 -10  -1  556.92   58.91
   5 -10  -1  454.42   77.16
   5 -10  -1  569.82   80.78
  -5  10   1  462.34   62.50
   5 -10   0  280.53   42.96
  -5  10   0  208.87   42.37
   5 -10   0  251.72   58.10
   5 -10   1  279.93   44.73
  -5  10  -1  155.34   36.08
   5 -10   1  208.55   52.79
   5 -10   2  136.47   34.58
  -5  10  -2  178.95   40.40
  -5  10  -3  101.24   22.42
   5 -10   3   83.99   25.84
  -5  10  -3  113.55   32.54
   5 -10   4  490.87   62.92
  -5  10  -4  417.83   60.21
  -5  10  -4  423.39   48.09
   5 -10   5  120.66   32.47
  -5  10  -5   99.25   30.15
  -5  10  -5  137.43   29.26
  -5  10  -6   36.01   17.87
   5 -10   6   45.00   22.34
   5 -10   6   49.47   22.75
  -5  10  -6   27.48   16.65
  -5  10  -7   41.78   22.67
   5 -10   7   16.27   12.39
   5 -10   7   62.87   28.53
  -5  10  -7   30.68   15.45
  -5  10  -8  128.09   33.29
   5 -10   8   99.47   31.73
   5 -10   8  119.55   33.26
  -5  10  -8  133.19   35.25
   5 -10   9  190.18   42.97
   5 -10   9  324.68   54.99
  -5  10  -9  208.85   40.99
   5 -10  10    6.81    6.75
  -5  10 -10    5.04   11.89
   5 -10  10   12.73   12.10
  -5  10 -11   37.27   17.65
   5 -10  11    3.74   12.46
   5  -9  -7   22.32   10.53
   5  -9  -7   -9.69   14.71
   5  -9  -6  133.79   37.92
   5  -9  -6  149.94   47.81
   5  -9  -6  119.08   33.56
   5  -9  -5  677.80   95.16
   5  -9  -5  501.60   74.32
   5  -9  -5  654.22   78.20
  -5   9   5  515.38   60.87
   5  -9  -4  164.36   22.73
   5  -9  -4  147.49   42.56
   5  -9  -4  192.77   42.86
  -5   9   4  143.03   32.37
  -5   9   3  100.61   26.97
   5  -9  -3   64.10   21.57
   5  -9  -3   93.83   29.54
   5  -9  -3   60.67   29.42
  -5   9   2  220.10   39.74
   5  -9  -2  146.40   29.99
   5  -9  -2  158.33   27.03
   5  -9  -2  158.95   42.63
   5  -9  -2  210.41   46.80
   5  -9  -1  321.83   40.81
   5  -9  -1  283.56   55.59
  -5   9   1  249.20   42.87
   5  -9  -1  288.60   53.48
   5  -9   0  967.72   76.18
  -5   9   0  904.82   82.39
   5  -9   0 1173.39  107.10
   5  -9   0  945.49  104.13
  -5   9  -1    9.58   12.89
   5  -9   1   21.13   21.56
   5  -9   1   -1.90    6.85
   5  -9   1   22.79   20.52
  -5   9  -2  477.04   59.57
   5  -9   2  409.79   69.55
   5  -9   2  470.04   55.79
   5  -9   3  559.58   62.64
  -5   9  -3  554.97   54.00
   5  -9   3  607.73   87.54
  -5   9  -3  618.55   67.89
   5  -9   4  367.63   51.62
  -5   9  -4  571.03   65.27
   5  -9   4  526.13   69.79
  -5   9  -4  500.01   54.55
  -5   9  -5  142.50   32.22
   5  -9   5  137.86   32.37
   5  -9   5  132.57   35.10
  -5   9  -5  131.68   30.18
  -5   9  -6   51.00   20.24
   5  -9   6   50.13   21.16
   5  -9   6   16.37   11.76
  -5   9  -6   35.44   19.42
  -5   9  -7  280.89   45.66
  -5   9  -7  284.48   49.22
   5  -9   7  247.32   44.33
   5  -9   7  211.75   43.47
   5  -9   8  130.40   33.14
  -5   9  -8  110.05   28.77
   5  -9   8  130.29   32.84
   5  -9   9   30.75   21.81
  -5   9  -9   59.77   21.53
   5  -9   9   22.84   15.20
   5  -9  10    8.18   14.43
  -5   9 -10   39.31   14.69
   5  -9  10    8.58    9.01
   5  -9  11   28.10   15.66
   5  -9  11   21.07   14.47
   5  -8  -8   43.87   25.50
   5  -8  -8   50.93   25.63
   5  -8  -7   -0.31   13.82
   5  -8  -7   -8.48   18.69
   5  -8  -7   -0.98   10.46
   5  -8  -6   38.36   18.68
   5  -8  -6   63.41   28.39
   5  -8  -6   60.17   23.17
   5  -8  -5   50.46   23.60
   5  -8  -5   69.73   25.32
   5  -8  -5   62.14   27.98
  -5   8   5   57.86   19.28
  -5   8   4   77.39   23.59
   5  -8  -4   46.81   16.59
   5  -8  -4   68.34   13.89
   5  -8  -4   33.47   17.74
   5  -8  -4   48.38   21.52
  -5   8   3   92.91   25.66
   5  -8  -3   54.81   20.71
   5  -8  -3   74.42   16.32
   5  -8  -3   88.62   27.96
   5  -8  -3   30.17   19.84
  -5   8   2  337.97   47.05
   5  -8  -2  353.90   46.90
   5  -8  -2  322.83   36.57
   5  -8  -2  353.93   54.14
   5  -8  -2  384.76   60.68
  -5   8   1  888.74   77.18
   5  -8  -1  864.50   73.59
   5  -8  -1  848.24   63.83
   5  -8  -1  784.43   81.24
   5  -8  -1  784.43   88.53
  -5   8   0   47.15   17.67
   5  -8   0  102.61   33.58
   5  -8   0   75.26   19.54
   5  -8   0  122.23   34.13
   5  -8   1  835.78   67.99
   5  -8   1  760.11   88.76
   5  -8   1  852.56   83.83
  -5   8  -1  847.12   76.17
  -5   8  -2  444.23   54.92
  -5   8  -2  437.66   47.20
   5  -8   2  430.68   50.08
   5  -8   2  463.65   62.74
   5  -8   2  426.42   66.86
  -5   8  -3  481.55   57.40
  -5   8  -3  445.08   50.13
   5  -8   3  435.31   51.60
   5  -8   3  507.15   63.08
   5  -8   3  416.13   67.55
   5  -8   4  497.70   56.20
  -5   8  -4  506.39   58.79
   5  -8   4  502.82   63.39
  -5   8  -4  479.49   54.78
  -5   8  -5  226.32   39.05
  -5   8  -5  247.52   41.02
   5  -8   5  292.13   43.41
   5  -8   5  274.21   46.92
   5  -8   6  404.74   52.79
  -5   8  -6  330.75   51.81
  -5   8  -6  420.84   52.45
   5  -8   6  357.95   53.58
   5  -8   7  454.73   57.36
  -5   8  -7  444.86   54.20
   5  -8   7  395.32   55.14
   5  -8   8  374.80   52.95
  -5   8  -8  491.16   56.57
   5  -8   8  419.35   55.61
   5  -8   9  132.68   33.29
  -5   8  -9  163.23   32.99
   5  -8   9  109.78   28.59
   5  -8  10   90.71   26.12
   5  -8  10   95.39   28.29
   5  -8  11   18.28   11.44
   5  -8  11   23.14   16.65
   5  -8  12   23.51   13.00
   5  -7  -9   61.30   33.33
   5  -7  -9   69.06   27.40
   5  -7  -8   68.82   27.11
   5  -7  -8   88.85   36.72
   5  -7  -8   72.94   23.94
   5  -7  -7   15.80   10.95
   5  -7  -7    2.77   11.93
   5  -7  -7   -1.18    7.71
   5  -7  -6  651.54   67.33
   5  -7  -6  629.87   83.47
   5  -7  -6  570.09   72.81
   5  -7  -5    7.76   14.30
   5  -7  -5    1.38    6.23
   5  -7  -5    2.40    2.32
   5  -7  -5   22.89   11.75
   5  -7  -5   10.10   11.94
  -5   7   4   36.64   15.73
   5  -7  -4   43.57   17.65
   5  -7  -4   37.62   10.43
   5  -7  -4   45.50   20.33
   5  -7  -4   41.88   20.85
   5  -7  -3   17.72   12.77
  -5   7   3    8.99   11.75
   5  -7  -3    5.70    6.02
   5  -7  -3   -3.33    6.46
   5  -7  -3    2.68   10.59
   5  -7  -2  217.57   36.99
   5  -7  -2  165.36   24.32
  -5   7   2  272.20   39.66
   5  -7  -2  174.31   35.82
   5  -7  -2  230.49   44.52
   5  -7  -2  235.08   39.51
   5  -7  -1  249.01   38.25
   5  -7  -1  297.04   34.62
  -5   7   1  248.01   38.44
   5  -7  -1  290.89   44.72
   5  -7  -1  356.53   55.95
   5  -7   0    5.94    6.22
  -5   7   0    0.06    9.00
   5  -7   0    2.18   12.89
  -5   7   0   11.29   11.84
   5  -7   0   -0.86    9.71
  -5   7  -1  468.44   48.47
   5  -7   1  455.76   46.77
  -5   7  -1  446.82   51.61
   5  -7   1  451.27   57.77
  -5   7  -1  584.20   63.76
   5  -7   1  373.39   58.23
  -5   7  -2  132.93   26.49
   5  -7   2  121.89   24.66
  -5   7  -2  186.56   33.73
   5  -7   2  139.01   32.75
   5  -7   2  169.07   41.67
  -5   7  -3 1210.38   86.20
   5  -7   3 1269.47   85.54
  -5   7  -3 1162.42   88.16
  -5   7  -3 1321.22   91.13
   5  -7   3 1193.00   94.31
   5  -7   3 1197.92  110.20
  -5   7  -4  356.38   48.96
   5  -7   4  465.50   51.96
  -5   7  -4  512.82   55.39
   5  -7   4  366.87   52.34
   5  -7   4  451.91   70.09
   5  -7   5  287.86   42.06
  -5   7  -5  382.41   47.49
   5  -7   5  253.64   41.59
  -5   7  -5  299.05   47.48
   5  -7   6  974.41   81.61
  -5   7  -6  988.10   77.72
   5  -7   6  794.61   73.06
   5  -7   7  627.06   64.79
  -5   7  -7  670.63   63.44
   5  -7   7  656.00   66.27
   5  -7   8  327.59   45.90
   5  -7   8  269.41   49.87
   5  -7   8  286.27   44.55
   5  -7   9  196.58   36.34
   5  -7   9  212.18   38.84
   5  -7  10  155.94   31.92
   5  -7  10  229.88   41.53
   5  -7  11  308.48   49.27
   5  -7  12  204.69   40.82
   5  -6 -10  211.64   58.53
   5  -6 -10  164.75   41.31
   5  -6  -9    9.98    8.45
   5  -6  -9   16.26   14.40
   5  -6  -8  350.09   65.23
   5  -6  -8  300.24   51.73
   5  -6  -8  368.66   46.54
   5  -6  -7  485.84   72.54
   5  -6  -7  526.96   66.73
   5  -6  -7  485.89   70.72
   5  -6  -7  441.92   62.20
   5  -6  -7  503.01   54.57
   5  -6  -6  -13.08   13.24
   5  -6  -6   -7.73    8.91
   5  -6  -6    2.78    8.58
   5  -6  -6    4.92   11.16
   5  -6  -6    9.47    7.08
   5  -6  -5   28.54   15.98
   5  -6  -5   45.19   17.44
   5  -6  -5   57.67   19.85
   5  -6  -5   25.48   18.10
   5  -6  -5   41.22    8.28
   5  -6  -5   17.99   13.29
   5  -6  -5   37.67   16.99
   5  -6  -4   23.87   13.45
   5  -6  -4   15.56   13.14
   5  -6  -4   11.87   10.42
   5  -6  -4   16.41   13.72
   5  -6  -4    3.54    8.23
   5  -6  -4    7.81    5.23
   5  -6  -4   16.51   10.02
   5  -6  -4    2.46   12.28
   5  -6  -3   30.80   18.80
   5  -6  -3   33.74   14.76
   5  -6  -3   30.10   13.16
   5  -6  -3   64.93   21.41
   5  -6  -3   35.84   10.32
   5  -6  -3   70.01   23.77
   5  -6  -3   49.41   18.68
  -5   6   3   54.78   17.78
   5  -6  -2  416.47   50.89
   5  -6  -2  371.60   47.76
   5  -6  -2  418.83   48.66
   5  -6  -2  405.46   52.98
  -5   6   2  504.98   51.86
   5  -6  -2  457.27   38.25
   5  -6  -2  407.68   51.30
   5  -6  -2  320.69   49.95
   5  -6  -1   63.36   21.12
   5  -6  -1   72.85   21.13
   5  -6  -1   78.54   21.29
  -5   6   1  102.42   24.49
   5  -6  -1   56.35   14.16
   5  -6  -1   52.40   19.18
  -5   6   1   93.70   24.49
   5  -6  -1   30.05   16.76
   5  -6   0   27.31   14.22
   5  -6   0    8.25   10.52
  -5   6   0   13.32   10.14
   5  -6   0    4.97    7.97
  -5   6   0   20.38   12.73
   5  -6   0   13.81    8.48
  -5   6   0    7.69    5.07
   5  -6   0   31.48   19.96
  -5   6   0   10.43   12.44
   5  -6   1   40.72   16.55
   5  -6   1   55.74   15.63
  -5   6  -1   62.50   18.97
  -5   6  -1   27.89   12.08
   5  -6   1   33.38   15.55
   5  -6   1   29.52   13.10
  -5   6  -1   48.74   15.44
  -5   6  -1   25.07   13.11
   5  -6   1   45.02   20.95
   5  -6   2  365.62   42.19
  -5   6  -2  361.22   45.35
  -5   6  -2  438.04   48.54
   5  -6   2  374.54   48.31
   5  -6   2  397.35   42.85
  -5   6  -2  320.48   41.72
   5  -6   2  350.02   54.46
  -5   6  -2  355.71   48.58
   5  -6   2  323.80   46.77
   5  -6   3   69.07   22.66
  -5   6  -3   91.69   24.83
   5  -6   3   71.26   18.93
  -5   6  -3   64.99   17.91
   5  -6   3   55.80   19.21
   5  -6   3   75.36   20.31
  -5   6  -3   71.81   21.56
   5  -6   3   36.27   17.40
  -5   6  -3   49.07   17.95
   5  -6   4  167.41   33.57
   5  -6   4  160.85   27.59
  -5   6  -4  143.79   32.75
  -5   6  -4  146.43   28.00
   5  -6   4  200.48   35.12
   5  -6   4  140.03   27.46
  -5   6  -4  167.51   33.25
   5  -6   4  133.13   35.69
  -5   6  -4  114.04   29.94
   5  -6   5  316.37   43.54
  -5   6  -5  367.11   44.81
   5  -6   5  344.87   41.22
   5  -6   5  266.25   38.54
   5  -6   5  279.90   44.99
  -5   6  -5  319.08   49.76
   5  -6   6  448.91   51.58
   5  -6   6  480.60   53.41
   5  -6   6  600.08   66.37
   5  -6   7  554.20   57.51
   5  -6   7  452.56   51.66
   5  -6   7  542.31   64.52
   5  -6   7  566.22   65.83
   5  -6   8  280.91   42.20
   5  -6   8  308.15   42.26
   5  -6   8  285.56   48.02
   5  -6   8  306.73   50.22
   5  -6   9  314.55   45.99
   5  -6   9  340.42   44.02
   5  -6  10  640.81   68.00
   5  -6  10  603.96   57.36
   5  -6  11  310.48   47.83
   5  -6  12  205.34   40.44
   5  -5 -11  332.61   58.01
   5  -5 -10   81.73   27.80
   5  -5 -10  104.68   40.11
   5  -5  -9  357.56   41.36
   5  -5  -9  319.49   53.01
   5  -5  -9  408.55   70.37
   5  -5  -8  698.89   81.48
   5  -5  -8  765.29   62.99
   5  -5  -8  583.50   69.69
   5  -5  -8  646.10   68.55
   5  -5  -8  723.88   88.24
   5  -5  -7  738.18   77.62
   5  -5  -7  739.01   71.52
   5  -5  -7  877.50   82.48
   5  -5  -7  852.12   90.31
   5  -5  -7  871.16   68.11
   5  -5  -6  144.83   29.08
   5  -5  -6   70.04   20.23
   5  -5  -6   79.69   24.08
   5  -5  -6   66.33   24.44
   5  -5  -6   66.64   22.03
   5  -5  -6  136.95   29.72
   5  -5  -5   39.41   17.76
   5  -5  -5   55.41   17.48
   5  -5  -5   20.45   10.45
   5  -5  -5   62.24   21.09
   5  -5  -5   33.45    7.01
   5  -5  -5   34.60   17.11
   5  -5  -5   58.83   17.19
   5  -5  -5   37.85   18.55
   5  -5  -4  603.29   57.86
   5  -5  -4  667.48   63.37
   5  -5  -4  642.58   59.18
   5  -5  -4  550.29   56.73
   5  -5  -4  551.48   35.32
   5  -5  -4  678.04   61.74
   5  -5  -4  589.94   63.80
   5  -5  -4  640.97   63.94
   5  -5  -3  263.93   35.50
   5  -5  -3  264.80   39.56
   5  -5  -3  310.53   42.90
   5  -5  -3  282.88   26.53
  -5   5   3  226.28   27.01
   5  -5  -3  218.93   38.54
   5  -5  -3  243.20   38.29
   5  -5  -3  339.46   42.89
   5  -5  -2   32.19   12.54
   5  -5  -2   27.25   14.74
   5  -5  -2   45.23   14.52
   5  -5  -2   35.14   10.19
   5  -5  -2   18.43   11.39
   5  -5  -2   12.95   12.04
   5  -5  -2   13.84    8.42
   5  -5  -1   30.59   10.79
   5  -5  -1   92.11   23.37
  -5   5   1   87.95   21.66
   5  -5  -1   59.59   19.40
   5  -5  -1   55.01   13.72
   5  -5  -1   85.38   25.74
  -5   5   1   46.37   17.05
   5  -5  -1   78.38   21.68
   5  -5   0   16.29   12.52
  -5   5   0   33.54   14.98
   5  -5   0    1.31    7.17
  -5   5   0    0.28    5.83
   5  -5   0   13.23   10.55
   5  -5   0    2.43    4.28
  -5   5   0   20.72   10.74
  -5   5   0   34.29   15.14
   5  -5   1  635.84   61.29
  -5   5  -1  696.55   59.06
   5  -5   1  664.88   61.10
   5  -5   1  748.99   54.64
  -5   5  -1  550.16   52.03
  -5   5  -1  677.27   59.92
   5  -5   1  750.59   57.76
  -5   5  -1  744.79   65.65
   5  -5   1  591.57   65.63
   5  -5   2    7.19    9.37
  -5   5  -2   -3.05    8.03
   5  -5   2    1.66    6.81
  -5   5  -2   -1.60    5.89
   5  -5   2   -3.32    7.14
  -5   5  -2   -6.16    5.52
   5  -5   2    8.09   10.60
  -5   5  -2    3.27    4.16
   5  -5   2    7.26    9.20
   5  -5   3   97.89   24.55
   5  -5   3   54.45   17.55
  -5   5  -3  120.23   27.51
   5  -5   3   76.06   18.64
  -5   5  -3   76.47   20.88
  -5   5  -3  131.86   28.68
   5  -5   3   71.65   26.81
   5  -5   4    8.04    9.26
   5  -5   4    6.62    9.96
  -5   5  -4    4.00   12.54
   5  -5   4   -1.33    6.49
  -5   5  -4   11.95    9.88
   5  -5   4   19.11   13.31
  -5   5  -4   16.20   14.60
  -5   5  -5  129.92   29.55
   5  -5   5   75.64   21.12
   5  -5   5   78.50   21.42
   5  -5   5   77.93   20.20
   5  -5   6  187.01   33.44
  -5   5  -6  157.75   34.46
   5  -5   6  135.32   27.35
   5  -5   6  150.50   31.07
   5  -5   6  186.01   30.88
   5  -5   7  166.55   32.61
  -5   5  -7  211.89   39.70
   5  -5   7  179.42   31.64
   5  -5   7  176.37   33.89
   5  -5   7  218.41   33.49
   5  -5   8  185.38   32.90
   5  -5   8  165.26   29.30
   5  -5   8  145.33   32.48
   5  -5   8  212.01   39.06
   5  -5   9   87.30   23.66
   5  -5   9   80.27   20.38
   5  -5   9  110.85   29.57
   5  -5   9  101.54   27.11
   5  -5  10  561.37   62.51
   5  -5  10  655.82   56.89
   5  -5  11  177.38   35.31
   5  -5  12  144.98   33.80
   5  -5  13  124.03   31.98
   5  -4 -12  334.09   59.88
   5  -4 -11  113.76   34.75
   5  -4 -11   84.33   34.91
   5  -4 -10  294.57   61.40
   5  -4 -10  339.01   36.31
   5  -4 -10  386.68   58.60
   5  -4  -9  832.15   83.75
   5  -4  -9  997.84   66.91
   5  -4  -9  895.27   75.00
   5  -4  -9 1063.48  109.85
   5  -4  -8  858.73   63.31
   5  -4  -8  899.06   81.49
   5  -4  -8  971.88   86.38
   5  -4  -8  869.50   72.37
   5  -4  -8  828.83   90.94
   5  -4  -7  732.32   59.21
   5  -4  -7  677.27   62.50
   5  -4  -7  702.83   77.53
   5  -4  -7  660.53   64.04
   5  -4  -7  677.22   70.12
   5  -4  -6  214.86   37.01
   5  -4  -6  230.46   34.79
   5  -4  -6  188.68   12.08
   5  -4  -6  200.91   30.89
   5  -4  -6  211.85   40.33
   5  -4  -6  195.85   30.48
   5  -4  -6  243.17   35.99
   5  -4  -5  947.95   70.18
   5  -4  -5 1106.54   72.68
   5  -4  -5  964.80   75.97
   5  -4  -5 1023.09   43.13
   5  -4  -5  995.72   74.60
   5  -4  -5 1038.81   74.24
   5  -4  -5 1015.70   80.77
   5  -4  -5 1010.40   80.95
   5  -4  -4 1736.18   90.17
   5  -4  -4 1755.25  104.97
   5  -4  -4 1746.14  100.09
   5  -4  -4 1634.11   94.73
  -5   4   4 1691.79   74.34
   5  -4  -4 1724.59   67.08
   5  -4  -4 1930.06  104.90
   5  -4  -4 1699.06  105.35
   5  -4  -4 1605.53   98.14
   5  -4  -3  628.24   50.36
   5  -4  -3  709.89   64.77
   5  -4  -3  804.27   64.92
  -5   4   3  697.82   47.01
   5  -4  -3  721.23   42.85
   5  -4  -3  718.02   66.40
   5  -4  -3  714.84   57.74
   5  -4  -3  841.70   68.67
   5  -4  -3  763.43   62.26
   5  -4  -2   47.27   16.19
   5  -4  -2   39.11   14.37
   5  -4  -2   56.01   18.30
   5  -4  -2   57.90   14.47
   5  -4  -2   38.85   10.33
  -5   4   2   55.10   14.98
   5  -4  -2   62.95   19.28
   5  -4  -1  785.83   50.25
   5  -4  -1  732.83   66.08
  -5   4   1  719.12   58.88
   5  -4  -1  802.78   56.38
   5  -4  -1  722.45   61.56
  -5   4   1  736.72   61.83
  -5   4   0  612.02   50.98
   5  -4   0  689.83   49.26
  -5   4   0  685.04   58.26
  -5   4   0  725.81   60.73
   5  -4   0  717.36   61.24
   5  -4   1  223.40   33.32
  -5   4  -1  222.26   34.90
   5  -4   1  212.58   28.08
  -5   4  -1  206.66   29.96
   5  -4   1  296.73   43.62
  -5   4  -1  197.88   31.29
   5  -4   2   16.64   10.45
   5  -4   2   35.54   14.59
  -5   4  -2   53.53   18.59
   5  -4   2   20.69   11.58
  -5   4  -2   21.96   13.46
  -5   4  -2   23.72   13.44
   5  -4   2    4.95    7.80
   5  -4   3   12.01   10.46
  -5   4  -3   22.97   15.57
   5  -4   3   10.11    9.96
   5  -4   3   -2.27    6.71
  -5   4  -3   10.79    7.63
   5  -4   3   22.28   15.17
  -5   4  -3   32.45   14.91
   5  -4   4   44.90   18.08
  -5   4  -4   40.05   15.51
   5  -4   4   51.20   14.77
   5  -4   4   57.53   17.87
   5  -4   4   32.79   13.85
  -5   4  -4   36.01   15.07
   5  -4   4   57.37   18.11
   5  -4   5  390.41   43.91
  -5   4  -5  446.29   52.18
   5  -4   5  409.22   43.99
  -5   4  -5  416.71   51.31
   5  -4   5  398.80   46.47
   5  -4   5  386.30   42.33
   5  -4   6  128.47   24.69
   5  -4   6  122.59   24.20
   5  -4   6  139.25   26.64
  -5   4  -6  156.03   32.88
   5  -4   6  122.96   26.10
   5  -4   7   10.56    8.88
   5  -4   7    8.65    8.70
   5  -4   7    2.40    5.95
  -5   4  -7    1.30    9.31
   5  -4   7   10.26   11.15
   5  -4   8   16.59   12.60
   5  -4   8    7.59    6.66
   5  -4   8   22.72   12.39
  -5   4  -8   13.41   12.51
   5  -4   8    7.79    7.43
   5  -4   9  325.38   47.82
   5  -4   9  240.27   39.15
   5  -4   9  278.94   35.73
   5  -4  10   23.15   13.19
   5  -4  11    9.71    7.54
   5  -4  12  205.73   38.63
   5  -3 -13   82.89   29.20
  -5   3  13   68.43   25.79
   5  -3 -12   40.27   30.39
   5  -3 -12   27.24   13.62
  -5   3  12   26.19   21.15
   5  -3 -11   28.65   17.77
   5  -3 -11   11.37   18.28
  -5   3  11   26.33   17.68
   5  -3 -10  274.57   57.40
   5  -3 -10  194.98   26.46
  -5   3  10  219.92   41.39
   5  -3 -10  302.10   50.48
   5  -3  -9  704.21   66.66
   5  -3  -9  592.53   55.00
   5  -3  -9  712.25   87.05
   5  -3  -9  617.54   50.02
  -5   3   9  675.69   69.86
   5  -3  -9  633.77   70.20
   5  -3  -8  743.38   62.96
   5  -3  -8  634.40   56.70
   5  -3  -8  738.46   82.39
   5  -3  -8  649.64   53.42
   5  -3  -8  709.26   71.45
   5  -3  -7  273.12   41.26
   5  -3  -7  218.27   31.22
   5  -3  -7  302.08   48.80
   5  -3  -7  212.98   32.22
   5  -3  -7  277.69   34.50
   5  -3  -6 1358.06   80.17
   5  -3  -6 1254.48   72.88
   5  -3  -6 1204.00   42.92
   5  -3  -6 1258.36   79.87
   5  -3  -6 1249.46   93.50
  -5   3   6 1229.07   50.21
   5  -3  -6 1208.83   77.82
   5  -3  -6 1193.04   85.76
   5  -3  -5 2541.92  117.14
   5  -3  -5 2562.47  106.96
   5  -3  -5 2530.90  128.21
   5  -3  -5 2558.11   81.30
   5  -3  -5 2859.22  125.50
  -5   3   5 2528.84   89.48
   5  -3  -5 2602.42  121.12
   5  -3  -5 2391.80  125.04
   5  -3  -5 2519.11  128.87
   5  -3  -4 1313.65   70.05
   5  -3  -4 1222.97   85.59
   5  -3  -4 1267.07   79.95
   5  -3  -4 1225.39   76.96
   5  -3  -4 1212.06   53.75
  -5   3   4 1215.61   59.17
   5  -3  -4 1214.80   79.87
   5  -3  -4 1205.75   84.19
   5  -3  -4 1231.60   78.95
   5  -3  -3 1315.76   71.05
   5  -3  -3 1371.79   91.09
   5  -3  -3 1377.87   82.82
   5  -3  -3 1468.97   84.83
  -5   3   3 1314.70   65.60
   5  -3  -3 1253.73   59.24
   5  -3  -3 1536.87   91.30
   5  -3  -3 1299.57   74.70
   5  -3  -2  643.23   61.73
   5  -3  -2  656.93   55.06
  -5   3   2  686.45   47.30
   5  -3  -2  691.24   43.81
  -5   3   2  573.64   55.43
   5  -3  -2  680.66   56.62
   5  -3  -2  605.17   56.97
   5  -3  -2  701.97   47.79
   5  -3  -1  575.32   56.79
  -5   3   1  554.53   51.73
   5  -3  -1  609.08   54.25
   5  -3  -1  590.11   42.78
   5  -3   0 2024.54  103.67
   5  -3   0 2040.54   90.10
  -5   3   0 2038.76  108.62
   5  -3   0 1908.00  109.39
  -5   3   0 2040.49  103.11
   5  -3   1  851.02   62.76
   5  -3   1  896.47   65.23
  -5   3  -1  885.94   68.74
   5  -3   1  902.22   57.96
  -5   3  -1  888.25   61.46
  -5   3  -1  841.78   70.33
  -5   3  -1  916.80   65.99
   5  -3   1  909.63   72.83
   5  -3   2  696.07   56.74
   5  -3   2  685.24   56.20
   5  -3   2  722.98   53.34
  -5   3  -2  740.11   68.84
  -5   3  -2  671.84   57.30
   5  -3   2  631.40   61.94
   5  -3   3    5.26    8.34
  -5   3  -3   -1.58    7.36
   5  -3   3    3.83    4.90
   5  -3   3    2.58    8.54
   5  -3   3   -1.44    7.78
  -5   3  -3   -1.16    6.65
   5  -3   3   10.09   10.83
  -5   3  -3   16.81    9.75
   5  -3   4  258.31   34.65
   5  -3   4  282.55   29.46
   5  -3   4  249.25   33.56
   5  -3   4  307.18   36.17
  -5   3  -4  255.32   36.41
  -5   3  -4  311.36   39.87
   5  -3   4  290.30   46.47
  -5   3  -5   45.82   15.99
   5  -3   5   32.26   12.00
   5  -3   5   20.26   10.94
   5  -3   5   51.75   17.17
  -5   3  -5   27.67   13.57
   5  -3   5   50.19   17.02
   5  -3   6    6.84    8.59
   5  -3   6    5.60    7.24
   5  -3   6   -0.76    5.07
  -5   3  -6   -4.13   10.19
   5  -3   6   11.42    8.04
   5  -3   7   67.56   19.53
   5  -3   7   36.56   13.65
   5  -3   7   41.15   16.41
  -5   3  -7   26.31   12.93
   5  -3   7   41.77   16.74
   5  -3   8    7.35    8.78
   5  -3   8   14.05    9.60
  -5   3  -8   -8.42    7.98
   5  -3   8   17.82   10.40
   5  -3   8    8.30    9.17
   5  -3   9   54.34   18.15
   5  -3   9   39.99   11.65
  -5   3  -9   57.13   19.46
   5  -3  10   -0.43    6.42
   5  -3  11   53.10   19.59
   5  -3  12   -6.57   11.29
   5  -2 -14   39.00   25.36
   5  -2 -13    5.51   12.31
  -5   2  13   -0.88   10.18
  -5   2  12   43.80   21.31
   5  -2 -12   94.29   41.83
   5  -2 -11   15.24    7.95
  -5   2  11   19.96   17.05
   5  -2 -11   16.02   19.37
   5  -2 -10   34.93   21.86
  -5   2  10  119.12   30.60
   5  -2 -10   75.10   15.48
   5  -2 -10   99.81   21.29
   5  -2  -9  595.44   51.62
   5  -2  -9  547.57   49.80
   5  -2  -9  590.40   77.81
  -5   2   9  585.85   63.92
   5  -2  -9  626.79   48.83
  -5   2   8   34.72   16.14
   5  -2  -8   28.08   10.87
   5  -2  -8   43.77   15.15
   5  -2  -8   13.70   14.15
   5  -2  -8   36.00   13.39
   5  -2  -7  360.74   34.74
   5  -2  -7  372.42   40.84
   5  -2  -7  388.86   54.93
  -5   2   7  421.39   24.67
  -5   2   7  469.85   52.89
   5  -2  -7  391.06   42.49
   5  -2  -7  442.23   42.43
   5  -2  -6  545.03   47.92
  -5   2   6  604.03   54.73
   5  -2  -6  548.25   41.42
   5  -2  -6  563.32   28.93
   5  -2  -6  560.73   60.30
   5  -2  -6  648.15   53.97
  -5   2   6  566.34   33.20
   5  -2  -6  560.79   50.47
   5  -2  -6  502.75   52.60
  -5   2   5  969.56   70.57
   5  -2  -5 1034.91   67.67
   5  -2  -5 1067.39   78.16
   5  -2  -5  945.64   55.04
   5  -2  -5 1037.48   45.11
   5  -2  -5 1069.24   70.72
   5  -2  -5  856.18   69.97
  -5   2   5  926.23   48.18
   5  -2  -5  946.54   66.94
   5  -2  -5  970.03   72.31
   5  -2  -4 2038.32  112.48
   5  -2  -4 1916.72   73.15
  -5   2   4 1926.19   78.51
  -5   2   4 2088.01  105.61
   5  -2  -4 2144.27  102.20
   5  -2  -4 1995.10  102.49
   5  -2  -4 2041.75  100.82
   5  -2  -4 2056.24  101.85
   5  -2  -3  211.96   26.78
   5  -2  -3  233.48   31.72
  -5   2   3  194.43   22.91
   5  -2  -3  206.64   21.83
   5  -2  -3  237.36   31.46
  -5   2   3  215.72   31.65
   5  -2  -3  201.48   31.04
   5  -2  -3  265.13   38.19
  -5   2   2 3821.58  148.51
   5  -2  -2 3593.23  120.11
   5  -2  -2 3500.88  141.10
   5  -2  -2 3646.45  149.16
   5  -2  -2 3457.64  117.46
   5  -2  -1 4160.73  156.03
  -5   2   1 4129.05  162.69
   5  -2  -1 4100.34  116.30
   5  -2  -1 4170.55  137.93
  -5   2   0 1154.60   67.49
   5  -2   0 1136.73   63.79
  -5   2   0 1305.27   84.70
   5  -2   0 1305.56   77.08
   5  -2   1  957.14   64.33
  -5   2  -1 1026.65   71.24
   5  -2   1  948.33   65.34
   5  -2   1  927.98   59.30
  -5   2  -1 1007.77   78.05
  -5   2  -1 1023.82   66.47
   5  -2   2  176.12   26.82
  -5   2  -2  135.92   25.34
   5  -2   2  156.72   25.58
   5  -2   2  180.21   25.78
  -5   2  -2  206.99   37.03
  -5   2  -2  111.90   21.72
   5  -2   2  142.20   11.59
   5  -2   3 1951.70   97.56
  -5   2  -3 2223.89  108.17
  -5   2  -3 2119.50  103.17
   5  -2   3 2124.15   73.84
   5  -2   3 2075.06   99.76
  -5   2  -3 2021.17  106.61
   5  -2   3 2003.03   99.43
   5  -2   4  495.09   46.76
  -5   2  -4  487.40   49.75
  -5   2  -4  465.14   46.06
   5  -2   4  530.38   37.65
  -5   2  -4  513.52   49.97
   5  -2   4  604.97   50.46
   5  -2   4  478.24   44.82
   5  -2   5  128.09   23.32
   5  -2   5  103.58   19.37
  -5   2  -5  139.95   25.24
   5  -2   5  144.45   25.65
  -5   2  -5  123.49   25.67
   5  -2   5  144.79   24.66
   5  -2   6  347.01   41.11
   5  -2   6  309.06   36.65
   5  -2   6  313.92   36.01
  -5   2  -6  374.83   42.82
   5  -2   6  345.25   38.12
  -5   2  -7   24.44   12.38
   5  -2   7   22.78    9.73
   5  -2   7   17.23   10.26
   5  -2   7   19.77   12.23
   5  -2   8   56.13   18.42
   5  -2   8   23.97    9.39
  -5   2  -8   26.29   14.58
   5  -2   9    7.80    9.33
   5  -2  10   -0.64   13.43
   5  -2  10    7.08    8.56
   5  -2  11   -5.98   12.12
   5  -2  12   83.97   24.11
   5  -2  12   90.58   24.15
  -5   1  13   22.50   16.11
  -5   1  12    1.98   11.19
   5  -1 -12   -7.26   18.35
  -5   1  11    9.76   13.66
   5  -1 -11    6.85    6.89
   5  -1 -11   -6.86   22.17
   5  -1 -10  280.55   33.90
   5  -1 -10  244.93   52.62
   5  -1 -10  245.63   28.14
  -5   1  10  286.48   46.12
   5  -1 -10  219.85   27.99
   5  -1  -9  204.81   24.77
   5  -1  -9  224.75   48.33
   5  -1  -9  231.89   31.28
  -5   1   9  185.90   10.84
  -5   1   9  199.95   36.83
   5  -1  -9  250.45   30.41
   5  -1  -8   -1.36    4.22
  -5   1   8   -0.13    2.28
  -5   1   8   -2.66    6.09
  -5   1   8   -4.84    7.80
   5  -1  -8   -0.98    3.86
   5  -1  -8   -5.69   11.07
   5  -1  -8    7.63    8.52
   5  -1  -7   -2.97    4.65
  -5   1   7   10.15    6.74
   5  -1  -7    2.74    6.15
   5  -1  -7    5.65   10.46
   5  -1  -7   11.18    7.45
  -5   1   7    9.50    4.58
   5  -1  -7    6.50    7.26
  -5   1   7    1.12    8.90
   5  -1  -6  376.42   40.88
   5  -1  -6  445.29   52.51
  -5   1   6  419.84   29.39
  -5   1   6  431.09   48.33
   5  -1  -6  343.85   38.26
  -5   1   6  392.13   42.68
   5  -1  -6  393.74   39.67
   5  -1  -5 1211.84   83.93
   5  -1  -5 1123.57   50.81
   5  -1  -5 1131.81   78.56
   5  -1  -5 1075.51   70.23
  -5   1   5 1277.07   78.14
   5  -1  -5 1356.93   75.83
  -5   1   5 1254.28   57.02
   5  -1  -4   20.03    9.09
   5  -1  -4   17.74    6.02
  -5   1   4   17.90    6.24
   5  -1  -4    9.17    6.74
   5  -1  -4   42.56   13.84
  -5   1   4    6.34    6.26
   5  -1  -3  626.70   39.90
  -5   1   3  582.59   40.73
   5  -1  -3  657.85   52.00
   5  -1  -3  763.29   57.63
   5  -1  -3  663.87   45.63
   5  -1  -2 1589.96   71.01
   5  -1  -2 1458.55   82.13
   5  -1  -2 1625.36   87.79
  -5   1   2 1624.38   90.22
  -5   1   1 2357.96  114.69
   5  -1  -1 2210.52  102.83
   5  -1  -1 2098.11   88.76
  -5   1   0  585.09   56.33
   5  -1   0  597.89   49.20
   5  -1   0  582.62   43.66
  -5   1  -1 2105.20  118.73
  -5   1  -1 2267.89  108.54
   5  -1   1 2091.89  100.20
   5  -1   1 2215.12   96.75
  -5   1  -2 1231.80   77.86
   5  -1   2 1340.36   76.41
   5  -1   2 1270.59   72.67
  -5   1  -2 1328.10   94.80
   5  -1   2 1200.76   78.73
  -5   1  -2 1395.90   74.28
  -5   1  -3 1696.02   92.14
   5  -1   3 1464.92   82.10
   5  -1   3 1384.81   88.39
  -5   1  -3 1662.71   82.62
  -5   1  -3 1519.64   88.28
   5  -1   3 1571.95   83.96
   5  -1   3 1737.56   87.43
   5  -1   4 2075.12   97.86
  -5   1  -4 2102.88   97.04
  -5   1  -4 2164.32  109.75
   5  -1   4 1962.64   99.28
   5  -1   4 2037.29   97.10
  -5   1  -4 1998.89  103.65
  -5   1  -5  249.22   33.56
   5  -1   5  254.59   31.77
  -5   1  -5  273.71   32.34
   5  -1   5  248.96   33.54
  -5   1  -5  190.27   32.02
   5  -1   5  261.53   31.70
   5  -1   6   77.91   19.69
   5  -1   6   45.25   14.68
   5  -1   6   82.64   17.94
  -5   1  -6   44.12   13.44
   5  -1   7  700.25   61.05
  -5   1  -7  724.82   54.81
   5  -1   7  767.92   53.69
   5  -1   8  324.65   42.85
   5  -1   8  370.89   77.00
   5  -1   8  356.25   33.55
   5  -1   9   82.33   42.39
   5  -1   9    1.05    8.35
   5  -1  10   82.38   41.51
   5  -1  10   64.05   19.57
   5  -1  11  -12.71   11.42
   5  -1  11  -14.51   10.77
  -5   0  14    9.31    9.87
  -5   0  13   79.18   28.55
   5   0 -12  119.28   18.89
  -5   0  12   82.28   26.78
   5   0 -11  215.08   28.90
  -5   0  11  184.03   38.41
   5   0 -11  177.80   24.17
   5   0 -10   44.71    9.92
   5   0 -10   51.78   12.60
  -5   0  10   48.10    7.69
  -5   0  10   42.93   14.83
   5   0 -10   57.79   15.08
  -5   0  10   55.68   19.77
   5   0 -10   36.96   13.11
   5   0  -9  384.62   28.98
   5   0  -9  449.34   43.32
  -5   0   9  386.14   42.79
  -5   0   9  419.62   27.15
  -5   0   9  469.41   54.34
   5   0  -9  422.47   39.67
  -5   0   8   15.34   12.32
   5   0  -8   -2.80   13.40
   5   0  -8    4.62    4.89
  -5   0   8   26.42   12.08
  -5   0   8    5.34    4.34
  -5   0   8   13.07   11.13
   5   0  -8    5.20    3.79
  -5   0   7  333.38   38.52
   5   0  -7  307.20   45.70
  -5   0   7  302.35   41.03
  -5   0   7  336.61   27.00
  -5   0   7  313.19   41.96
   5   0  -7  283.53   34.49
   5   0  -7  278.83   32.87
  -5   0   6  131.42   25.54
  -5   0   6  161.60   27.84
  -5   0   6  164.99   19.39
   5   0  -6  113.47   21.60
  -5   0   6  164.29   26.70
   5   0  -6  162.31   25.27
  -5   0   5  446.57   44.01
  -5   0   5  483.20   43.58
   5   0  -5  480.36   32.38
  -5   0   5  546.63   37.13
   5   0  -5  445.79   42.36
   5   0  -5  508.61   44.96
  -5   0   4    2.05    4.68
  -5   0   4    0.57    3.17
   5   0  -4    3.12    3.65
   5   0  -4    3.98    5.85
   5   0  -4   -1.27    6.96
  -5   0   4    4.94    6.16
  -5   0   3  526.98   33.88
   5   0  -3  497.67   43.86
   5   0  -3  425.98   41.82
   5   0  -3  488.31   35.60
  -5   0   2  857.00   64.00
   5   0  -2  922.35   60.41
   5   0  -2  765.48   48.08
   5   0  -2  954.77   62.03
  -5   0   1  566.17   53.44
   5   0  -1  625.74   49.61
   5   0  -1  548.27   40.97
   5   0   0   34.35   10.96
  -5   0   0   19.76   10.09
   5   0   0   41.24   13.41
  -5   0   0   16.70    9.45
   5   0   0   26.17   13.28
  -5   0  -1  699.04   55.99
   5   0   1  870.44   55.98
  -5   0  -1  801.07   71.05
   5   0   1  806.36   57.25
   5   0   1  704.93   54.13
  -5   0  -2 2561.82  117.20
  -5   0  -2 2686.21  116.73
   5   0   2 2850.32  114.30
  -5   0  -2 2256.17  131.65
   5   0   2 2424.06  110.63
   5   0   2 2602.63  111.89
   5   0   3  789.56   60.41
  -5   0  -3  849.62   63.01
   5   0   3  848.16   60.20
   5   0   3  932.53   60.88
  -5   0  -3  879.06   64.13
  -5   0  -4  246.12   34.51
   5   0   4  299.73   35.25
  -5   0  -4  280.03   35.49
   5   0   4  283.89   32.85
  -5   0  -5  721.00   46.04
   5   0   5  649.92   54.49
   5   0   5  642.72   51.48
  -5   0  -5  695.28   57.07
   5   0   5  656.47   50.83
  -5   0  -6 1700.01   74.70
   5   0   6 1556.30   84.38
   5   0   6 1705.57   94.96
  -5   0  -6 1611.83   89.70
   5   0   6 1670.32   82.67
   5   0   7  406.87   45.14
   5   0   7  339.26   72.61
   5   0   7  289.70   30.92
  -5   0  -7  412.39   32.74
   5   0   8  366.61   82.00
   5   0   8  327.92   41.72
   5   0   9  134.34   52.45
   5   0   9   95.83   22.71
   5   0  10  174.18   29.74
   5   0  10  233.83   68.83
   5   0  10  146.66   29.77
  -5  -1  14  277.07   53.34
  -5  -1  13  286.38   52.03
  -5  -1  12  582.18   69.45
   5   1 -12  517.35   42.11
   5   1 -11  335.39   34.14
   5   1 -11  265.47   32.33
  -5  -1  11  261.76   21.75
  -5  -1  11  356.09   51.20
  -5  -1  11  328.68   39.22
  -5  -1  10    2.96    3.83
   5   1 -10   18.72    7.93
  -5  -1  10   -9.61    7.47
  -5  -1  10   -4.62    6.30
   5   1 -10   24.02   10.63
   5   1 -10    0.75    2.76
   5   1  -9  331.72   35.77
  -5  -1   9  344.19   39.73
   5   1  -9  310.90   39.92
   5   1  -9  297.02   22.36
  -5  -1   9  300.60   26.11
  -5  -1   9  360.03   46.75
  -5  -1   9  369.30   52.29
   5   1  -8  257.55   31.68
  -5  -1   8  283.71   25.38
  -5  -1   8  310.40   37.19
   5   1  -8  232.06   32.29
  -5  -1   8  236.16   36.70
  -5  -1   8  253.46   40.09
  -5  -1   7  247.75   24.49
   5   1  -7  287.00   34.46
  -5  -1   7  206.45   33.53
   5   1  -7  203.02   28.22
  -5  -1   7  280.76   35.09
  -5  -1   7  285.63   40.18
   5   1  -6  364.21   37.93
  -5  -1   6  322.10   38.25
   5   1  -6  372.23   44.87
  -5  -1   6  379.31   43.19
   5   1  -6  407.34   39.47
  -5  -1   6  442.01   45.42
  -5  -1   5    7.84    6.36
  -5  -1   5   11.05    6.53
   5   1  -5   18.29    8.86
  -5  -1   5   31.45   12.13
   5   1  -5   12.50    8.65
   5   1  -5   31.58    9.52
  -5  -1   4   51.45   12.87
   5   1  -4   75.74   14.78
   5   1  -4   71.96   16.19
  -5  -1   4   62.08   16.40
   5   1  -4   78.24   17.88
   5   1  -3  355.66   45.39
   5   1  -3  426.40   33.80
   5   1  -3  351.93   37.05
   5   1  -3  354.40   35.17
  -5  -1   3  394.12   30.13
  -5  -1   2  149.55   26.73
   5   1  -2  132.75   27.36
  -5  -1   2  153.46   14.55
   5   1  -2  123.34   18.61
  -5  -1   2  115.22   19.26
   5   1  -2  126.40   20.86
   5   1  -2  156.71   24.34
   5   1  -1  264.74   31.65
   5   1  -1  217.04   25.88
  -5  -1   1  272.77   36.70
   5   1  -1  269.33   30.46
   5   1  -1  301.91   33.33
  -5  -1   0  137.81   28.96
   5   1   0  117.38   19.42
   5   1   0  114.76   20.01
   5   1   0  152.38   24.13
  -5  -1   0  111.11   21.78
  -5  -1  -1  614.43   52.62
  -5  -1  -1  681.90   65.90
   5   1   1  697.55   50.50
  -5  -1  -1  635.64   32.51
  -5  -1  -1  626.15   50.26
   5   1   1  657.01   51.22
   5   1   1  602.44   46.02
  -5  -1  -2  619.50   53.31
  -5  -1  -2  635.52   65.97
   5   1   2  670.39   51.16
  -5  -1  -2  662.37   53.89
  -5  -1  -2  594.20   39.48
   5   1   2  589.42   45.58
   5   1   2  670.29   51.11
  -5  -1  -3   31.02   11.18
   5   1   3   56.10   15.13
  -5  -1  -3   64.07   17.79
  -5  -1  -3   44.88   14.49
   5   1   3   41.91   12.45
   5   1   3   62.77   16.10
   5   1   4  332.35   37.13
  -5  -1  -4  317.48   37.79
   5   1   4  341.92   36.01
  -5  -1  -4  320.41   38.47
  -5  -1  -4  373.48   42.34
   5   1   5  563.32   91.75
   5   1   5  641.29   53.99
   5   1   5  588.70   47.49
  -5  -1  -5  578.16   51.63
   5   1   6  545.02   51.43
   5   1   6  452.37   85.35
   5   1   6  557.83   45.70
  -5  -1  -6  521.40   48.77
   5   1   6  592.63   49.08
  -5  -1  -6  623.79   66.09
  -5  -1  -7  737.72   77.90
   5   1   7  925.02   69.42
   5   1   7  908.72  127.36
   5   1   7  907.08   56.51
   5   1   8  126.84   54.92
   5   1   8  155.56   28.57
   5   1   9  183.43   63.13
   5   1   9  198.20   33.10
   5   1  10  507.93   53.70
  -5  -2  14  212.65   46.33
   5   2 -13  892.86   89.73
  -5  -2  13 1024.64   96.49
  -5  -2  12  585.21   69.42
  -5  -2  12  492.37   42.19
  -5  -2  11  397.50   54.14
   5   2 -11  485.26   43.88
  -5  -2  11  428.77   45.21
   5   2 -10  311.32   34.67
   5   2 -10  285.60   18.82
  -5  -2  10  327.60   39.25
  -5  -2  10  351.08   47.95
   5   2 -10  295.86   34.47
  -5  -2   9  204.88   39.14
   5   2  -9  183.33   27.53
  -5  -2   9  217.70   32.13
  -5  -2   9  205.04   34.16
   5   2  -9  246.60   42.88
   5   2  -8  993.61   84.46
  -5  -2   8 1008.91   70.37
  -5  -2   8 1122.97   87.80
   5   2  -8 1150.16   72.74
  -5  -2   8  977.92   75.78
   5   2  -8  972.54   64.86
  -5  -2   7   79.93   23.05
  -5  -2   7   94.16   20.73
   5   2  -7   76.30   17.94
  -5  -2   7  112.49   24.81
   5   2  -7   94.87   19.35
   5   2  -7   93.17   29.28
  -5  -2   6  134.53   25.21
   5   2  -6  145.87   24.44
  -5  -2   6  140.26   26.15
   5   2  -6  169.59   24.91
   5   2  -6  158.48   29.57
   5   2  -5  173.78   29.86
  -5  -2   5  152.17   21.42
  -5  -2   5  188.43   29.04
   5   2  -5  163.85   25.58
  -5  -2   5  121.92   23.49
   5   2  -5  158.78   23.52
  -5  -2   5  167.73   26.86
   5   2  -4  924.75   71.84
  -5  -2   4 1012.56   58.48
   5   2  -4  893.17   52.43
   5   2  -4  939.80   63.22
   5   2  -4  931.90   57.52
  -5  -2   4  968.41   61.03
   5   2  -3   26.79   12.66
  -5  -2   3   34.83   11.56
   5   2  -3   21.12    8.85
   5   2  -3   22.86    8.90
   5   2  -3   21.12   12.44
   5   2  -2  415.35   36.18
   5   2  -2  509.32   52.66
  -5  -2   2  393.89   43.39
   5   2  -2  462.79   38.23
   5   2  -2  469.58   43.22
  -5  -2   1  209.14   32.67
   5   2  -1  208.24   25.89
   5   2  -1  187.82   27.53
  -5  -2   1  227.26   31.30
   5   2  -1  187.56   23.92
   5   2  -1  213.17   26.70
  -5  -2   0    0.33    9.82
   5   2   0    8.12    8.12
  -5  -2   0   12.76    9.75
   5   2   0    5.75    7.62
   5   2   0    8.37    6.16
  -5  -2   0   14.44   10.36
   5   2   0    6.17    6.66
  -5  -2  -1  251.68   33.82
  -5  -2  -1  217.75   37.42
   5   2   1  214.03   27.82
  -5  -2  -1  287.46   34.40
   5   2   1  262.80   32.29
   5   2   1  253.20   26.82
  -5  -2  -1  264.15   25.32
  -5  -2  -2   50.43   20.24
   5   2   2   -6.10   20.89
  -5  -2  -2   41.13   11.83
   5   2   2   46.28   13.99
  -5  -2  -2   44.27   14.77
   5   2   2   19.37    9.42
  -5  -2  -2   67.98   18.55
   5   2   2   24.19    8.76
   5   2   3    0.39    4.30
  -5  -2  -3   15.28    8.98
   5   2   3    6.70    4.84
  -5  -2  -3   16.09    9.27
  -5  -2  -3    2.00    4.25
   5   2   4  325.12   37.26
   5   2   4  218.68   61.05
   5   2   4  307.69   34.75
  -5  -2  -4  292.29   37.10
   5   2   5  521.25   49.15
   5   2   5  504.17   94.06
  -5  -2  -5  562.02   60.20
   5   2   5  569.01   47.45
  -5  -2  -5  524.81   49.79
   5   2   6   90.59   21.58
  -5  -2  -6   84.17   27.51
   5   2   6  142.67   55.68
  -5  -2  -6   98.83   21.37
   5   2   7   42.45   15.23
  -5  -2  -7   98.36   31.07
   5   2   7  127.94   57.22
   5   2   8   69.85   18.70
  -5  -2  -8   72.82   27.80
   5   2   8  116.99   64.33
   5   2   9  384.07   45.44
   5   2   9  354.89   91.34
  -5  -3  14  273.32   51.84
   5   3 -13  357.72   59.53
  -5  -3  13  332.88   54.79
   5   3 -12  181.58   41.58
  -5  -3  12  295.55   38.77
  -5  -3  12  338.90   51.35
  -5  -3  11   96.18   16.96
  -5  -3  11   23.06   10.53
   5   3 -11   77.55   19.84
  -5  -3  11   99.54   22.52
   5   3 -10  663.48   57.35
  -5  -3  10  639.71   45.36
  -5  -3  10  740.25   61.61
  -5  -3  10  712.08   68.09
   5   3 -10  718.34   56.63
  -5  -3   9 2203.66   93.33
  -5  -3   9 2280.93  114.30
  -5  -3   9 2115.97  136.66
  -5  -3   9 2232.06  121.37
   5   3  -9 2279.71  108.07
   5   3  -8  293.25   52.21
  -5  -3   8  289.65   29.80
  -5  -3   8  292.80   37.84
  -5  -3   8  301.51   46.12
   5   3  -8  262.86   33.66
  -5  -3   8  298.58   40.21
   5   3  -8  304.06   36.29
   5   3  -7  667.17   78.63
   5   3  -7  802.04   67.24
  -5  -3   7  655.26   46.37
  -5  -3   7  665.20   58.01
  -5  -3   7  756.78   70.57
   5   3  -7  693.19   52.63
  -5  -3   7  681.79   58.81
   5   3  -7  569.98   50.61
   5   3  -6  256.80   49.84
  -5  -3   6  260.72   29.08
   5   3  -6  165.57   26.84
  -5  -3   6  291.47   37.26
  -5  -3   6  241.27   37.51
  -5  -3   6  268.72   35.59
   5   3  -6  290.36   32.37
   5   3  -6  278.77   39.27
   5   3  -5  313.86   36.51
  -5  -3   5  235.23   28.03
   5   3  -5  232.87   48.42
   5   3  -5  314.08   41.10
  -5  -3   5  220.87   32.67
   5   3  -5  249.85   28.59
  -5  -3   5  207.29   30.25
   5   3  -4 1860.19  141.17
   5   3  -4 1673.15  100.57
  -5  -3   4 1867.08   86.61
   5   3  -4 1846.13   82.48
   5   3  -4 1756.17   80.10
   5   3  -4 1618.86   89.31
   5   3  -3   39.45   21.34
   5   3  -3   25.78   10.40
  -5  -3   3   20.06    9.46
   5   3  -3   36.65   11.02
   5   3  -3   30.20    9.66
  -5  -3   3   41.69   14.54
   5   3  -3   37.92   14.72
  -5  -3   2  319.54   38.45
   5   3  -2  307.51   32.74
   5   3  -2  295.35   60.41
  -5  -3   2  288.10   36.96
   5   3  -2  350.44   30.78
   5   3  -2  356.96   38.26
   5   3  -1   57.55   26.44
  -5  -3   1   64.34   17.93
   5   3  -1   93.72   19.10
  -5  -3   1  115.39   21.75
   5   3  -1   56.40   14.69
   5   3  -1   77.39   14.16
  -5  -3   1  110.44   24.65
   5   3   0  634.00   52.44
  -5  -3   0  806.56   62.43
   5   3   0  765.36   54.27
  -5  -3   0  715.86   65.19
   5   3   0  742.20   97.93
  -5  -3   0  760.56   57.60
   5   3   0  712.66   45.12
   5   3   0  738.73   46.81
  -5  -3  -1   83.49   24.80
   5   3   1   80.61   32.91
  -5  -3  -1   93.10   20.15
   5   3   1  106.37   20.35
  -5  -3  -1   87.03   20.50
   5   3   1   95.46   20.25
   5   3   1   64.14   12.29
   5   3   1   79.19   13.97
   5   3   2   88.21   43.80
  -5  -3  -2   67.47   16.66
  -5  -3  -2   25.25   11.92
   5   3   2   39.70   13.71
  -5  -3  -2   40.95   18.38
  -5  -3  -2   49.80   15.59
   5   3   2   49.55   14.37
   5   3   3   81.69   19.35
   5   3   3  115.18   22.04
  -5  -3  -3  117.68   24.07
   5   3   3  114.18   47.14
   5   3   4   43.36   13.24
  -5  -3  -4   65.39   19.62
   5   3   4   65.36   17.15
  -5  -3  -4   75.69   18.88
   5   3   4   75.77   51.97
   5   3   5  222.96   72.09
  -5  -3  -5  122.09   30.18
   5   3   5  139.28   25.22
   5   3   5  137.87   37.11
  -5  -3  -5  129.89   25.04
   5   3   6   71.01   18.24
  -5  -3  -6   70.43   25.15
   5   3   6  114.10   49.07
   5   3   6   74.21   28.34
   5   3   7   13.29    7.40
  -5  -3  -7   37.87   21.54
   5   3   8  222.94   33.53
   5   3   8  240.44   73.16
  -5  -3  -8  172.03   44.94
  -5  -4  14  187.25   42.78
  -5  -4  13  179.26   38.88
   5   4 -13  141.53   41.26
   5   4 -12  216.58   51.05
  -5  -4  12  253.98   44.66
  -5  -4  12  241.69   35.87
  -5  -4  12  280.52   31.83
   5   4 -11  292.95   28.36
  -5  -4  11  225.20   39.81
  -5  -4  11  220.76   34.59
  -5  -4  11  190.69   26.14
  -5  -4  10  486.91   51.40
  -5  -4  10  433.20   39.68
   5   4 -10  470.43   51.43
  -5  -4  10  500.96   56.22
   5   4 -10  455.51   47.12
  -5  -4   9  612.19   58.30
  -5  -4   9  600.04   47.34
   5   4  -9  669.39   76.72
  -5  -4   9  673.00   76.12
  -5  -4   9  700.14   64.33
   5   4  -9  616.75   54.49
  -5  -4   8  264.74   30.54
   5   4  -8  444.12   70.66
   5   4  -8  336.14   39.23
  -5  -4   8  205.07   39.44
   5   4  -8  338.96   37.30
  -5  -4   8  282.26   38.98
  -5  -4   8  260.22   36.86
   5   4  -7  360.02   45.07
  -5  -4   7  392.72   52.67
   5   4  -7  298.28   33.24
  -5  -4   7  294.24   38.37
   5   4  -7  372.82   41.01
  -5  -4   7  351.06   42.81
  -5  -4   7  286.86   32.31
   5   4  -7  433.34   72.55
   5   4  -6  676.65   91.66
   5   4  -6  541.06   55.69
  -5  -4   6  575.57   51.77
   5   4  -6  606.20   45.87
   5   4  -6  478.05   47.27
  -5  -4   6  614.64   56.50
  -5  -4   6  573.09   45.89
   5   4  -5 2334.81  174.63
   5   4  -5 2482.99  126.07
  -5  -4   5 2318.63  108.85
   5   4  -5 2604.32  101.47
   5   4  -5 2391.92  113.55
  -5  -4   5 2415.20  120.17
  -5  -4   5 2485.62  105.95
   5   4  -4  286.80   40.16
   5   4  -4  274.01   27.48
  -5  -4   4  302.48   38.30
   5   4  -4  280.85   35.92
   5   4  -4  335.83   66.13
  -5  -4   4  314.29   34.21
   5   4  -3  250.35   37.47
   5   4  -3  321.16   28.77
   5   4  -3  271.23   34.96
  -5  -4   3  325.47   40.45
   5   4  -3  381.84   72.24
  -5  -4   3  308.40   34.84
  -5  -4   2  351.73   40.95
   5   4  -2  315.58   34.04
   5   4  -2  296.83   66.93
  -5  -4   2  299.35   35.13
   5   4  -2  278.05   25.50
   5   4  -2  318.89   37.69
  -5  -4   2  350.58   41.77
  -5  -4   1  407.25   46.42
   5   4  -1  399.04   38.88
   5   4  -1  402.12   79.83
  -5  -4   1  363.82   39.46
   5   4  -1  360.18   27.92
   5   4  -1  292.76   36.96
  -5  -4   1  340.66   41.23
   5   4   0  450.90   45.42
  -5  -4   0  428.10   46.61
   5   4   0  468.94   42.79
   5   4   0  369.63   77.27
  -5  -4   0  497.59   53.87
  -5  -4   0  490.23   47.15
   5   4   0  448.48   30.52
   5   4   0  469.94   34.54
  -5  -4  -1   17.20   11.03
   5   4   1   28.72   11.65
   5   4   1   51.59   33.86
  -5  -4  -1   19.80   13.68
   5   4   1   27.47    9.70
   5   4   1   21.20    6.64
   5   4   1   21.30    5.98
  -5  -4  -2   79.62   24.72
   5   4   2   76.86   46.48
   5   4   2   28.22   11.27
   5   4   2   62.82   10.88
  -5  -4  -2  121.93   26.32
   5   4   2   65.04   18.47
  -5  -4  -3   71.38   26.21
   5   4   3   48.45   35.51
  -5  -4  -3   60.19   18.63
   5   4   3   81.65   19.40
  -5  -4  -3   73.10   20.25
   5   4   3   67.88   12.02
  -5  -4  -4  362.66   49.47
   5   4   4  403.43   94.74
   5   4   4  317.34   38.24
   5   4   4  264.10   53.57
  -5  -4  -4  304.67   40.67
   5   4   5   63.60   17.87
  -5  -4  -5   72.87   24.53
   5   4   5  119.08   54.83
   5   4   5   66.28   29.65
   5   4   6   20.35    9.48
  -5  -4  -6   16.01   13.27
   5   4   6   -0.94   24.68
   5   4   7   47.97   15.01
  -5  -4  -7   40.77   23.67
   5   4   7   15.27   31.12
   5   4   8  -34.49   32.78
  -5  -5  14   68.85   28.65
   5   5 -14  116.75   38.19
  -5  -5  13   68.40   25.85
   5   5 -13   13.56   11.75
  -5  -5  12    4.51   10.37
   5   5 -12   24.35    7.23
   5   5 -11  278.13   34.81
  -5  -5  11  290.14   44.30
   5   5 -11  196.25   50.17
   5   5 -10  842.78   75.73
  -5  -5  10  867.09   60.19
  -5  -5  10  716.18   68.52
   5   5 -10  634.16   90.75
  -5  -5   9   54.28   14.55
  -5  -5   9   45.43   20.62
  -5  -5   9   74.52   21.42
   5   5  -9   89.41   31.41
   5   5  -8  177.11   47.61
   5   5  -8   74.12   20.12
  -5  -5   8   64.05   19.75
  -5  -5   8   94.16   19.66
   5   5  -8   82.91   19.31
  -5  -5   8   95.03   22.51
   5   5  -8   98.60   23.94
   5   5  -7  340.38   43.75
   5   5  -7  424.38   39.93
  -5  -5   7  379.60   43.49
  -5  -5   7  374.76   46.22
   5   5  -7  379.21   43.92
  -5  -5   7  411.27   40.40
   5   5  -6 1719.88  160.58
   5   5  -6 1453.68   94.45
   5   5  -6 1700.15   80.53
  -5  -5   6 1629.29   90.23
  -5  -5   6 1624.99   99.88
   5   5  -6 1622.95   95.08
  -5  -5   6 1623.29   86.06
   5   5  -5  398.84   47.83
   5   5  -5  356.23   75.33
  -5  -5   5  454.37   43.10
  -5  -5   5  426.45   41.81
   5   5  -5  404.44   34.48
  -5  -5   5  429.62   48.50
   5   5  -5  379.09   42.91
   5   5  -4    9.19    7.20
  -5  -5   4    3.15    6.35
  -5  -5   4   15.55    9.09
   5   5  -4   15.21    6.90
   5   5  -4   20.51   10.06
  -5  -5   3  258.26   37.50
   5   5  -3  285.75   24.98
   5   5  -3  283.60   37.35
   5   5  -3  324.50   76.28
  -5  -5   3  282.78   35.07
   5   5  -2 1025.25  134.08
  -5  -5   2  981.04   70.22
  -5  -5   2  954.24   73.57
   5   5  -2  971.58   71.16
   5   5  -2  951.51   45.14
   5   5  -1 1257.25  152.58
  -5  -5   1 1112.69   79.31
   5   5  -1 1182.58   47.52
  -5  -5   1 1235.23   84.44
   5   5  -1 1233.81   81.42
  -5  -5   0    3.61    6.06
   5   5   0   10.69   21.19
  -5  -5   0    7.11   10.43
   5   5   0    5.44    7.57
   5   5   0    3.71    2.76
   5   5   0    0.50    3.31
  -5  -5  -1   42.56   18.78
   5   5   1   63.29   34.74
   5   5   1   70.29   16.98
   5   5   1   54.84    6.17
  -5  -5  -1   45.78   18.21
  -5  -5  -2  246.76   42.59
   5   5   2  247.88   75.16
  -5  -5  -2  204.03   34.95
   5   5   2  184.51   28.88
   5   5   2  193.73   50.42
  -5  -5  -2  149.47   29.54
   5   5   3  847.82   63.86
   5   5   3  926.62  148.91
   5   5   3  792.84  100.58
  -5  -5  -3  950.76   89.83
  -5  -5  -3  797.73   74.19
   5   5   4   90.88   20.88
  -5  -5  -4  102.16   28.20
   5   5   4  104.66   38.90
   5   5   5   23.06   10.95
  -5  -5  -5    5.95    8.70
   5   5   5   42.39   41.69
   5   5   5   28.97   19.40
   5   5   6   14.14    9.65
  -5  -5  -6   45.52   25.66
   5   5   6   33.20   34.96
   5   5   7  282.92   79.80
  -5  -6  14  142.34   36.71
   5   6 -14   74.22   27.10
  -5  -6  13  -33.21   17.54
   5   6 -13  -13.66   22.51
  -5  -6  12  254.96   44.80
   5   6 -12  213.63   56.18
   5   6 -12  321.33   33.02
  -5  -6  11  199.37   36.88
   5   6 -11  189.34   32.87
   5   6 -11  122.32   40.88
  -5  -6  10  226.19   38.15
   5   6 -10  218.49   41.71
   5   6 -10  203.26   54.91
   5   6  -9   -3.70   11.32
  -5  -6   9    3.86    6.04
   5   6  -9   12.08   17.05
   5   6  -9   -3.49   11.51
   5   6  -8  300.53   60.32
  -5  -6   8  361.26   43.62
   5   6  -8  294.74   65.22
   5   6  -8  362.50   45.84
   5   6  -7  589.86   59.11
  -5  -6   7  621.57   56.02
   5   6  -6  118.87   27.09
   5   6  -6   65.52   30.28
  -5  -6   6   93.53   21.17
   5   6  -5  368.41   46.49
  -5  -6   5  371.69   38.38
   5   6  -5  489.15   88.89
   5   6  -4   97.44   45.29
   5   6  -3  313.48   74.92
   5   6  -2  746.44   99.27
   5   6  -2  731.35  119.46
  -5  -6   2  739.66   59.86
   5   6  -1  260.58   60.60
   5   6  -1  164.44   62.97
  -5  -6   1  141.85   26.70
   5   6   0   69.24   31.18
   5   6   0   95.49   35.50
   5   6   0   75.91   10.77
  -5  -6   0   52.84   17.50
  -5  -6  -1  224.73   38.96
   5   6   1  298.21   64.17
   5   6   1  278.28   81.93
  -5  -6  -2  555.52   65.75
   5   6   2  615.53  119.13
   5   6   2  615.39   92.76
  -5  -6  -3    6.04    9.36
  -5  -6  -3  -14.25   13.74
   5   6   3   27.54   47.12
   5   6   3   23.07   22.08
  -5  -6  -4   95.32   27.63
  -5  -6  -4   88.50   28.39
   5   6   4   59.02   30.30
  -5  -6  -5   14.06   15.71
  -5  -6  -5   -2.06    9.18
  -5  -6  -6   64.52   28.52
   5   6   6  107.49   48.26
   5   7 -14   52.78   27.53
  -5  -7  14   15.26   13.43
   5   7 -13  298.89   75.46
  -5  -7  13  320.42   52.27
   5   7 -12  282.65   36.56
  -5  -7  12  265.62   45.58
   5   7 -12  292.93   69.30
  -5  -7  11  185.31   36.63
   5   7 -11  207.66   59.22
   5   7 -11  174.93   32.85
  -5  -7  10   74.33   22.08
   5   7 -10  110.55   43.11
   5   7 -10   80.88   27.91
   5   7  -9  153.22   30.86
  -5  -7   9  106.75   24.39
   5   7  -9  133.60   48.58
   5   7  -9   98.32   30.59
   5   7  -8  285.07   40.86
  -5  -7   8  367.22   43.58
   5   7  -8  184.17   52.29
   5   7  -8  310.91   61.78
   5   7  -7  675.45   64.06
  -5  -7   7  760.34   61.19
   5   7  -7  485.44   85.14
   5   7  -7  642.13   94.90
   5   7  -6  104.17   25.35
  -5  -7   6  140.37   24.42
   5   7  -6   90.11   37.37
   5   7  -6  154.50   53.89
   5   7  -5   60.55   36.99
  -5  -7   5   40.12   13.38
   5   7  -4  731.98  116.33
   5   7  -4  699.79  102.80
   5   7  -3 1302.91  158.69
   5   7  -3 1345.07  141.77
  -5  -7   2    7.86    7.83
   5   7  -2  -18.79   26.15
   5   7  -2    0.39   25.67
  -5  -7   1   92.62   22.68
   5   7  -1   44.97   30.61
   5   7  -1   75.23   41.11
  -5  -7   0   36.52   15.88
   5   7   0   97.65   39.99
   5   7   0   25.08   34.67
  -5  -7  -1  210.67   37.68
   5   7   1  249.35   64.07
   5   7   1  226.63   72.42
  -5  -7  -2  622.37   68.84
   5   7   2  373.42   92.53
   5   7   2  388.71   76.28
  -5  -7  -3    7.81   14.58
  -5  -7  -3   -2.99    8.18
   5   7   3    3.33   21.80
   5   7   3    5.33   16.84
   5   7   4   59.26   38.98
  -5  -7  -4   15.73   15.74
  -5  -7  -4   38.04   21.48
  -5  -7  -5  134.62   37.68
   5   7   5  132.43   62.26
   5   8 -15  150.98   44.92
  -5  -8  14  129.90   36.63
   5   8 -14  127.60   47.73
  -5  -8  13   55.57   21.53
   5   8 -13   45.01   31.54
  -5  -8  12  191.74   38.71
   5   8 -12  185.91   33.75
   5   8 -12  230.92   61.46
  -5  -8  11  180.98   36.75
   5   8 -11  133.64   33.27
   5   8 -11  186.43   58.77
  -5  -8  10   19.72   10.86
   5   8 -10   60.63   24.09
   5   8 -10   27.85   23.98
   5   8  -9  356.42   63.92
  -5  -8   9  379.12   47.40
   5   8  -9  314.07   74.61
   5   8  -9  290.76   43.12
   5   8  -8  223.40   55.20
  -5  -8   8  228.53   35.10
   5   8  -8  186.03   54.14
   5   8  -8  205.77   35.63
   5   8  -7  310.67   67.95
  -5  -8   7  269.98   35.69
   5   8  -7  230.80   62.18
   5   8  -7  406.08   49.73
   5   8  -6  236.84   63.15
  -5  -8   6  273.61   34.91
   5   8  -6  160.46   51.77
   5   8  -6  317.93   42.73
   5   8  -5  312.64   71.91
   5   8  -5  343.41   78.33
   5   8  -4  398.43   81.81
   5   8  -4  466.41   93.16
   5   8  -3   23.23   23.79
   5   8  -3   31.28   23.69
   5   8  -2  323.22   71.96
   5   8  -2  213.96   67.70
  -5  -8   1  143.86   26.25
   5   8  -1   70.65   37.40
   5   8  -1  113.52   52.66
  -5  -8   0  332.21   42.51
   5   8   0  292.71   70.55
   5   8   0  153.73   58.87
  -5  -8  -1  461.80   53.98
   5   8   1  480.59  102.28
   5   8   1  342.35   75.38
   5   8   2   23.51   23.50
   5   8   2  -47.21   29.15
  -5  -8  -3  158.91   39.71
   5   8   3  265.64   75.21
   5   8   3  166.26   49.72
  -5  -8  -4    4.54   13.12
   5   9 -15   25.73   23.33
  -5  -9  14   23.24   12.21
   5   9 -14  -84.47   39.79
  -5  -9  13  213.70   41.74
   5   9 -13  159.97   54.17
  -5  -9  12  156.94   35.01
   5   9 -12  102.07   44.14
   5   9 -12  126.11   30.66
  -5  -9  11    5.42    6.64
   5   9 -11   30.15   26.19
   5   9 -11    8.39    8.70
  -5  -9  10  249.43   40.63
   5   9 -10  317.14   57.76
  -5  -9   9  143.56   29.24
   5   9  -9  112.00   51.80
   5   9  -9  115.71   37.65
  -5  -9   8  393.83   45.82
   5   9  -8  338.98   77.29
   5   9  -8  376.61   71.98
  -5  -9   7   35.34   13.08
   5   9  -7   50.18   33.97
   5   9  -7   66.28   37.11
   5   9  -6   73.49   34.36
   5   9  -6  128.66   50.10
  -5  -9   6  114.75   22.15
   5   9  -5  359.86   78.47
   5   9  -5  223.55   64.66
   5   9  -4  593.27  102.38
   5   9  -4  671.44  108.95
   5   9  -3  235.80   67.13
   5   9  -3  491.93   92.83
   5   9  -2  317.71   77.78
   5   9  -2  168.42   58.14
   5   9  -1  398.81   88.57
   5   9  -1  310.65   75.04
   5   9   0  464.25   98.53
   5   9   0  438.03   85.90
   5   9   1  170.41   57.08
   5   9   1  151.61   53.26
   5   9   2   -4.14   15.11
  -5  -9  -3   51.45   21.60
   5  10 -15   34.09   27.38
   5  10 -14   88.11   42.26
  -5 -10  14   79.15   30.10
   5  10 -13  120.59   51.70
  -5 -10  13  198.50   41.59
   5  10 -12   14.55   14.08
   5  10 -12    6.77   18.24
  -5 -10  12   37.91   19.56
   5  10 -11   56.69   23.77
   5  10 -11   24.91   26.12
  -5 -10  11   18.91   13.80
   5  10 -10    9.68   12.31
   5  10 -10   12.58   15.83
  -5 -10  10    5.07   10.59
   5  10  -9  209.50   51.17
   5  10  -9   88.43   43.20
  -5 -10   9  141.55   28.92
   5  10  -8   86.37   36.31
   5  10  -8   30.18   23.39
  -5 -10   8   83.04   22.15
   5  10  -7   -8.07   15.36
   5  10  -7   22.49   29.78
  -5 -10   7   -7.72    7.34
   5  10  -6  198.79   64.00
   5  10  -6  170.01   55.50
   5  10  -5  282.05   71.66
   5  10  -5  253.08   68.25
   5  10  -4  326.43   81.06
   5  10  -4  288.69   71.35
   5  10  -3   88.76   47.48
   5  10  -3  147.95   54.86
   5  10  -2  137.60   52.80
   5  10  -2  133.22   55.10
   5  10  -1  562.22  102.34
   5  10  -1  464.35   97.50
   5  10   0  159.79   53.51
   5  10   1  210.36   61.00
  -5 -11  13   17.20   13.10
   5  11 -12   80.75   42.15
  -5 -11  12   29.24   14.79
   5  11 -11   22.23   18.70
   5  11 -11   15.49   30.13
  -5 -11  11  -13.20   11.56
   5  11 -10   51.21   23.20
   5  11 -10   85.20   44.18
  -5 -11  10   48.11   19.05
   5  11  -9   11.82   21.37
   5  11  -9    2.18   16.70
  -5 -11   9   17.11   10.86
   5  11  -8   15.36   36.22
   5  11  -8   48.30   28.94
   5  11  -7   40.27   34.35
   5  11  -7   14.41   28.05
   5  11  -6   50.70   38.72
   5  11  -6  101.06   41.14
   5  11  -5   59.60   41.75
   5  11  -5   73.31   34.51
   5  11  -4   72.53   37.89
   5  11  -4  -19.34   23.59
   5  11  -3    2.95   15.70
   5  11  -2  243.68   70.34
   5  11  -1  123.58   49.36
  -5 -12  12   29.43   15.54
   5  12 -12   92.53   32.47
   5  12 -11  285.78   57.30
   5  12 -10  161.52   46.06
   5  12  -9   11.15   18.16
   5  12  -8    0.44   14.92
   5  12  -7   -9.25   14.51
   6 -14   2  150.46   43.22
   6 -14   3  294.72   62.79
   6 -13   1  396.33   64.41
   6 -13   2  663.37   86.22
   6 -13   3  871.08  100.08
   6 -13   4  133.73   38.46
   6 -13   5  271.25   55.52
   6 -12  -3   89.24   39.52
   6 -12  -2   52.69   31.50
  -6  12   2   60.29   25.67
   6 -12  -2  101.66   40.62
   6 -12  -1  213.64   41.29
   6 -12  -1  205.52   60.00
  -6  12   1  170.28   42.82
   6 -12  -1  198.50   56.70
   6 -12   0  104.61   32.39
   6 -12   0   90.13   40.36
   6 -12   0   55.30   34.24
  -6  12   0  127.78   36.34
   6 -12   1  752.02   84.36
  -6  12  -1  567.14   76.95
   6 -12   1  708.63  104.06
   6 -12   2  291.39   70.55
  -6  12  -2  235.32   49.90
   6 -12   2  359.27   58.78
   6 -12   3  368.27   72.79
  -6  12  -3  252.96   51.05
   6 -12   3  262.89   51.93
   6 -12   4  283.08   66.24
   6 -12   4  309.37   57.35
   6 -12   5  559.44   76.54
   6 -12   5  494.33   82.21
  -6  12  -5  437.40   68.02
   6 -12   6  742.49   89.01
  -6  12  -6  537.08   74.93
   6 -12   6  618.68   93.06
   6 -12   7  348.88   61.81
   6 -12   7  375.60   69.66
  -6  12  -7  372.03   61.36
   6 -12   8  271.65   60.35
  -6  12  -8  252.92   51.19
   6 -12   9  185.03   48.61
  -6  12  -9  146.65   39.58
   6 -11  -5  -14.48   15.56
   6 -11  -5    6.65   13.19
   6 -11  -4   39.95   28.28
   6 -11  -4  115.90   37.76
  -6  11   4   56.74   22.12
   6 -11  -4   92.34   39.06
   6 -11  -3   14.13   25.80
  -6  11   3   10.94   15.94
   6 -11  -3  -12.24   15.00
   6 -11  -2   28.16   14.69
   6 -11  -2   -9.04   21.10
  -6  11   2   11.51   13.66
   6 -11  -2    2.94   12.69
   6 -11  -1   22.72   12.84
   6 -11  -1    8.52   16.12
  -6  11   1  -11.79   11.99
   6 -11  -1   36.99   20.37
   6 -11   0  134.19   32.69
   6 -11   0  137.49   46.21
  -6  11   0  137.32   36.42
   6 -11   0  171.06   46.80
   6 -11   1  178.69   38.46
   6 -11   1  253.05   61.43
   6 -11   1  260.59   57.37
  -6  11  -1  124.24   36.11
   6 -11   2   99.27   42.25
   6 -11   2   69.80   26.96
  -6  11  -2   75.57   26.52
   6 -11   2   73.35   35.25
   6 -11   3  145.08   36.63
  -6  11  -3  136.98   37.06
   6 -11   3   91.84   34.85
  -6  11  -4  275.78   51.10
  -6  11  -4  312.31   43.57
   6 -11   4  410.11   61.74
   6 -11   4  270.74   59.39
   6 -11   5  707.76   82.04
  -6  11  -5  697.91   69.14
   6 -11   5  473.33   77.61
  -6  11  -5  786.50   86.12
   6 -11   6  334.31   57.41
  -6  11  -6  450.22   58.73
   6 -11   6  429.11   72.66
  -6  11  -6  512.10   69.92
   6 -11   7  192.71   44.40
  -6  11  -7  182.33   40.43
   6 -11   7  131.11   40.50
  -6  11  -7  224.72   46.86
   6 -11   8   78.97   28.80
   6 -11   8   62.43   26.91
  -6  11  -8  113.38   31.87
  -6  11  -8   94.93   32.52
   6 -11   9  464.51   72.71
  -6  11  -9  446.36   64.45
  -6  11  -9  445.03   70.94
   6 -11  10  624.46   81.78
  -6  11 -10  751.28   83.80
  -6  11 -10  626.48   90.23
   6 -11  11   71.98   30.34
  -6  11 -11   83.57   33.99
   6 -10  -6   51.66   28.74
   6 -10  -6    0.63   11.75
   6 -10  -5  174.53   49.72
   6 -10  -5  271.67   63.61
   6 -10  -5  232.39   51.56
   6 -10  -4   -7.23   12.51
   6 -10  -4    2.05   19.24
  -6  10   4   11.89   10.42
   6 -10  -3    2.81    8.55
   6 -10  -3   -8.34   13.31
   6 -10  -3  -19.02   20.30
  -6  10   3   -1.63    6.96
   6 -10  -2   -7.76    5.34
   6 -10  -2    3.65   18.00
   6 -10  -2   -4.61   10.14
  -6  10   2   12.52   14.20
   6 -10  -1   16.86   11.51
   6 -10  -1    5.51   12.83
   6 -10  -1   13.00   13.26
  -6  10   1   16.66   14.70
   6 -10   0   61.92   21.06
   6 -10   0   54.14   32.99
   6 -10   0   24.70   16.78
  -6  10   0   27.55   17.24
   6 -10   1   -1.51   11.46
   6 -10   1  -20.80   17.37
  -6  10  -1   -4.49   10.73
   6 -10   2  114.59   29.44
   6 -10   2  133.98   43.81
   6 -10   2  164.54   44.08
  -6  10  -2  123.78   34.42
  -6  10  -3   27.40   16.70
  -6  10  -3   48.28   17.88
   6 -10   3   41.65   18.92
   6 -10   3   31.06   17.88
   6 -10   3   56.03   30.17
   6 -10   4  137.17   36.31
  -6  10  -4  137.52   29.58
   6 -10   4  134.33   39.59
  -6  10  -4  131.29   34.41
   6 -10   5  262.43   47.92
  -6  10  -5  221.35   40.80
   6 -10   5  301.56   56.34
  -6  10  -5  264.33   47.69
   6 -10   6  167.31   38.57
  -6  10  -6  145.64   34.91
   6 -10   6  124.93   37.15
  -6  10  -6  106.53   32.23
   6 -10   7  132.63   35.87
  -6  10  -7  102.69   31.63
   6 -10   7  175.06   42.91
  -6  10  -7  104.36   30.24
   6 -10   8  337.29   56.32
  -6  10  -8  318.71   58.38
   6 -10   8  340.73   58.39
  -6  10  -8  374.42   56.29
   6 -10   9  398.76   62.64
   6 -10   9  341.23   57.80
  -6  10  -9  447.98   62.08
  -6  10  -9  429.67   71.82
   6 -10  10   92.41   31.21
  -6  10 -10   31.21   25.35
   6 -10  11  299.99   53.16
   6  -9  -8   -2.77    9.72
   6  -9  -7  172.07   46.17
   6  -9  -7  155.12   38.75
   6  -9  -6  793.24  106.64
   6  -9  -6  594.70   86.78
   6  -9  -6  676.62   81.15
   6  -9  -5   73.46   32.66
   6  -9  -5  117.02   39.51
   6  -9  -5  132.49   34.99
   6  -9  -4   71.67   29.35
   6  -9  -4   54.41   27.32
   6  -9  -4  136.08   41.05
   6  -9  -3   11.93    8.48
   6  -9  -3   27.61   23.40
   6  -9  -3   24.54   19.31
  -6   9   3   16.11   14.61
  -6   9   2   92.42   26.60
   6  -9  -2  103.61   27.27
   6  -9  -2   90.95   21.08
   6  -9  -2  122.47   34.06
   6  -9  -2   67.67   29.51
   6  -9  -1  165.12   29.88
   6  -9  -1  138.99   42.39
   6  -9  -1  170.00   41.66
  -6   9   1  149.19   33.86
   6  -9   0  314.97   42.58
   6  -9   0  276.50   58.11
   6  -9   0  245.26   50.71
  -6   9   0  237.33   42.44
   6  -9   1   34.74   16.34
   6  -9   1   77.46   31.66
   6  -9   1   24.25   17.33
  -6   9  -1   54.21   23.68
  -6   9  -2  344.60   51.67
  -6   9  -2  360.50   47.53
   6  -9   2  319.60   46.64
   6  -9   2  433.40   66.35
   6  -9   2  326.53   63.69
  -6   9  -3  622.49   70.20
  -6   9  -3  608.88   63.31
   6  -9   3  709.30   71.75
   6  -9   3  529.14   72.18
   6  -9   3  732.85   99.01
   6  -9   4  150.70   32.74
  -6   9  -4  104.82   29.23
   6  -9   4  103.10   32.35
  -6   9  -4  154.01   35.84
   6  -9   5    5.18    6.85
  -6   9  -5   11.13   13.25
   6  -9   5   24.14   20.12
  -6   9  -5    3.44    9.98
   6  -9   6   26.79   16.28
  -6   9  -6   -9.72   10.68
   6  -9   6    6.32   11.83
  -6   9  -6   -6.74   11.64
   6  -9   7   30.69   18.95
  -6   9  -7   41.09   25.13
   6  -9   7    3.45   14.73
  -6   9  -7   26.20   14.77
   6  -9   8  359.67   55.51
  -6   9  -8  274.23   56.30
  -6   9  -8  346.95   51.76
   6  -9   8  296.42   51.09
   6  -9   9  346.91   55.21
   6  -9   9  330.61   53.39
   6  -9  10    6.21    9.22
   6  -9  10   -1.88    7.11
   6  -8  -9  -28.47   20.04
   6  -8  -8  368.84   66.82
   6  -8  -8  460.76   84.37
   6  -8  -8  336.57   52.05
   6  -8  -7  345.32   63.65
   6  -8  -7  420.86   75.84
   6  -8  -7  373.60   55.66
   6  -8  -6  268.62   57.40
   6  -8  -6  337.62   65.79
   6  -8  -6  286.36   49.41
   6  -8  -5  540.18   69.37
   6  -8  -5  600.84   81.54
   6  -8  -5  577.54   81.39
   6  -8  -4  107.73   18.62
   6  -8  -4  125.17   38.41
   6  -8  -4  105.76   30.52
   6  -8  -4   88.28   29.22
  -6   8   3  388.18   51.70
   6  -8  -3  389.66   55.40
   6  -8  -3  383.49   38.12
   6  -8  -3  399.09   58.11
   6  -8  -3  432.02   68.29
  -6   8   2  940.45   82.40
   6  -8  -2  837.28   81.29
   6  -8  -2  939.32   65.23
   6  -8  -2  755.79   81.25
   6  -8  -2  796.30   93.32
   6  -8  -1    9.88    9.47
   6  -8  -1   44.18   22.26
   6  -8  -1   33.01   18.33
  -6   8   1   16.92   14.61
   6  -8   0   87.07   21.43
   6  -8   0   30.03   16.16
   6  -8   0   84.83   29.32
  -6   8   0   81.69   24.84
  -6   8  -1   14.68    9.73
  -6   8  -1    7.03    8.28
   6  -8   1   13.77   12.54
   6  -8   1   20.07   13.50
   6  -8   1   16.02   16.20
  -6   8  -2  380.16   52.70
  -6   8  -2  294.03   43.02
   6  -8   2  363.34   46.77
   6  -8   2  476.40   63.46
   6  -8   2  439.67   71.89
  -6   8  -3  130.12   29.97
  -6   8  -3  112.11   27.69
   6  -8   3  140.04   29.99
   6  -8   3  122.80   32.25
   6  -8   3  168.07   45.66
  -6   8  -4   12.14    8.94
  -6   8  -4    2.74   13.02
   6  -8   4    5.32   11.34
   6  -8   4    1.75   13.16
   6  -8   4    8.62   14.13
   6  -8   5   14.45   11.89
  -6   8  -5   24.01   15.40
   6  -8   5    5.19   12.47
  -6   8  -5   10.09   13.37
   6  -8   6    9.17    7.99
  -6   8  -6    0.63    9.52
   6  -8   6    2.32    7.49
  -6   8  -6   -0.56    8.29
   6  -8   7  186.43   39.16
  -6   8  -7   92.33   31.43
   6  -8   7  169.29   37.21
   6  -8   8  115.97   29.76
   6  -8   8   44.13   19.29
   6  -8   9    7.45    9.53
   6  -8   9   25.08   18.11
   6  -8  10   29.72   17.42
   6  -8  10   28.61   16.27
   6  -7 -10   74.96   32.59
   6  -7  -9   -3.93   11.08
   6  -7  -9   -2.66   14.41
   6  -7  -8  438.71   69.83
   6  -7  -8  550.35   86.77
   6  -7  -8  505.34   61.11
   6  -7  -7  506.76   73.65
   6  -7  -7  561.65   82.38
   6  -7  -7  486.80   59.64
   6  -7  -6  439.97   67.21
   6  -7  -6  353.37   52.09
   6  -7  -6  413.61   68.11
   6  -7  -5  204.69   21.42
   6  -7  -5  196.75   43.73
   6  -7  -5  179.02   37.27
   6  -7  -5  163.39   41.02
   6  -7  -4   91.56   16.83
   6  -7  -4   48.51   24.43
   6  -7  -4   77.60   26.49
   6  -7  -4  147.54   36.97
   6  -7  -3 1253.09   99.60
   6  -7  -3 1164.30   95.03
   6  -7  -3 1142.68  105.72
   6  -7  -3 1127.71   65.84
   6  -7  -2  293.56   47.62
   6  -7  -2  316.00   34.91
   6  -7  -2  269.88   45.27
   6  -7  -2  334.04   56.89
  -6   7   1  752.20   70.21
   6  -7  -1  806.86   78.08
   6  -7  -1  586.67   50.77
   6  -7  -1  537.51   73.25
   6  -7  -1  564.03   66.56
  -6   7   0   94.80   24.93
   6  -7   0  148.57   38.07
   6  -7   0  137.60   25.14
  -6   7   0  101.19   23.91
   6  -7   0  134.84   32.80
  -6   7  -1  661.37   63.77
   6  -7   1  705.42   60.16
  -6   7  -1  578.04   60.04
  -6   7  -1  692.21   67.78
   6  -7   1  615.46   68.21
   6  -7   1  678.21   83.22
  -6   7  -2  480.03   56.44
   6  -7   2  528.99   54.06
  -6   7  -2  496.96   57.10
   6  -7   2  562.81   65.75
   6  -7   2  524.35   73.62
  -6   7  -3  138.69   32.10
   6  -7   3  146.82   28.88
  -6   7  -3  132.63   29.95
   6  -7   3  137.16   32.65
   6  -7   3   72.63   30.26
  -6   7  -4   78.72   26.08
   6  -7   4   79.57   21.33
  -6   7  -4  111.77   27.83
   6  -7   4   52.99   19.63
   6  -7   4   74.03   32.19
   6  -7   5  116.59   27.53
  -6   7  -5  123.62   34.55
   6  -7   5  110.92   29.78
   6  -7   6  794.64   73.50
   6  -7   6  772.86   74.90
  -6   7  -6  685.25   81.85
   6  -7   7  170.86   34.55
   6  -7   7  168.77   37.54
   6  -7   7  137.04   30.29
   6  -7   8   17.09    6.70
   6  -7   8    0.35    8.24
   6  -7   9  -11.26   12.20
   6  -7   9   -9.87   14.11
   6  -7  10   76.34   23.66
   6  -7  10  198.79   40.38
   6  -7  11  222.17   43.85
   6  -6 -11   89.47   33.14
   6  -6 -10   -1.82   11.24
   6  -6 -10  -17.77   21.52
   6  -6  -9  128.29   27.92
   6  -6  -9  137.96   38.83
   6  -6  -9  150.69   46.01
   6  -6  -8  179.66   33.56
   6  -6  -8  137.68   37.91
   6  -6  -8  125.25   37.72
   6  -6  -7   65.37   20.36
   6  -6  -7   72.10   26.21
   6  -6  -7   54.00   24.44
   6  -6  -6  112.99   12.04
   6  -6  -6   29.70   18.81
   6  -6  -6   67.91   22.12
   6  -6  -6  115.60   33.58
   6  -6  -5  192.86   20.73
   6  -6  -5  117.81   31.85
   6  -6  -5  123.20   29.84
   6  -6  -5  177.82   38.19
   6  -6  -4  821.71   49.39
   6  -6  -4  699.71   72.82
   6  -6  -4  742.21   71.83
   6  -6  -4  602.63   73.08
   6  -6  -4  728.75   74.09
   6  -6  -3  535.88   42.11
   6  -6  -3  468.00   59.63
   6  -6  -3  549.96   61.53
   6  -6  -3  454.59   63.59
   6  -6  -2  534.77   44.25
  -6   6   2  455.14   46.44
   6  -6  -2  576.55   65.62
   6  -6  -2  441.84   54.82
   6  -6  -2  509.42   66.47
   6  -6  -1  427.58   41.30
  -6   6   1  469.54   48.29
   6  -6  -1  419.90   55.40
   6  -6  -1  418.53   61.07
   6  -6  -1  359.59   49.88
   6  -6   0   85.79   24.94
   6  -6   0   63.04   16.97
  -6   6   0  100.32   24.91
  -6   6   0  119.97   25.24
   6  -6   0   91.05   31.39
  -6   6  -1  620.82   62.49
   6  -6   1  695.73   68.40
   6  -6   1  569.26   71.68
   6  -6   1  652.14   55.39
  -6   6  -1  618.52   60.26
  -6   6  -2  525.64   59.62
   6  -6   2  485.05   57.08
   6  -6   2  419.33   63.36
   6  -6   2  502.14   50.41
  -6   6  -3  211.37   39.70
   6  -6   3  259.42   42.00
   6  -6   3  230.34   49.08
   6  -6   3  294.96   39.45
  -6   6  -4  155.84   36.37
   6  -6   4  138.43   31.73
   6  -6   4  135.41   37.89
   6  -6   4  148.57   29.48
   6  -6   5  479.10   53.53
   6  -6   5  669.92   66.13
  -6   6  -5  662.03   77.57
   6  -6   6  170.61   33.15
   6  -6   6  129.11   29.66
   6  -6   6  187.97   34.76
  -6   6  -6  153.38   40.26
   6  -6   7  204.67   36.16
   6  -6   7  183.58   35.75
   6  -6   7  140.14   30.25
   6  -6   8   39.63   18.04
   6  -6   8   63.61   19.74
   6  -6   8   44.37   19.04
   6  -6   9   32.17   15.65
   6  -6   9   19.35   12.32
   6  -6  10  151.18   34.14
   6  -6  11   85.36   27.60
   6  -5 -12   96.11   35.64
   6  -5 -11   16.09   17.77
   6  -5 -10   47.34   27.67
   6  -5 -10   88.61   31.31
   6  -5  -9   65.78   27.94
   6  -5  -9   41.57   15.40
   6  -5  -9   50.56   22.20
   6  -5  -8  294.55   56.33
   6  -5  -8  206.66   45.18
   6  -5  -8  237.67   37.24
   6  -5  -7   69.61   25.11
   6  -5  -7   83.22   23.03
   6  -5  -7   76.30   26.71
   6  -5  -7   78.75   21.56
   6  -5  -6  168.55   37.50
   6  -5  -6  164.27   15.65
   6  -5  -6  240.14   38.65
   6  -5  -6  184.81   38.16
   6  -5  -6  211.04   36.19
   6  -5  -5  166.78   36.63
   6  -5  -5  226.52   22.25
   6  -5  -5  171.43   30.70
   6  -5  -5  238.92   38.39
   6  -5  -5  233.22   39.64
   6  -5  -5  221.10   40.47
   6  -5  -4  295.18   39.25
   6  -5  -4  228.75   41.10
   6  -5  -4  250.44   38.93
   6  -5  -4  248.67   39.54
   6  -5  -4  276.46   27.32
   6  -5  -4  273.80   42.45
   6  -5  -4  309.25   48.88
   6  -5  -3  376.58   49.80
   6  -5  -3  355.63   33.20
   6  -5  -3  321.86   39.76
   6  -5  -3  397.28   53.85
   6  -5  -3  303.64   48.29
   6  -5  -3  387.06   45.77
   6  -5  -3  379.10   48.01
   6  -5  -2   24.50   15.32
   6  -5  -2   17.70   12.07
   6  -5  -2   22.41   10.74
   6  -5  -2   23.32   14.31
   6  -5  -2   45.92   13.10
  -6   5   2   33.53   11.69
   6  -5  -2    3.35    9.38
   6  -5  -2   34.66   15.42
   6  -5  -1  339.07   45.78
   6  -5  -1  315.79   47.39
   6  -5  -1  282.74   36.87
   6  -5  -1  257.88   30.59
  -6   5   1  276.82   36.04
   6  -5  -1  230.65   38.49
   6  -5  -1  244.35   43.91
  -6   5   1  258.86   40.79
   6  -5   0 1094.35   84.66
  -6   5   0 1046.06   80.86
   6  -5   0 1067.33   74.98
   6  -5   0  966.21   65.76
  -6   5   0 1027.37   73.74
   6  -5   0  928.09   77.71
   6  -5   0 1039.85   92.54
  -6   5   0  993.97   80.68
   6  -5   1  520.47   57.55
  -6   5  -1  572.91   61.16
  -6   5  -1  541.05   54.64
   6  -5   1  540.87   49.01
   6  -5   1  492.28   56.00
  -6   5  -1  517.72   57.32
   6  -5   1  598.44   70.03
   6  -5   2  329.05   46.39
   6  -5   2  284.34   36.65
  -6   5  -2  338.26   44.21
  -6   5  -2  440.57   55.73
  -6   5  -2  296.59   43.59
   6  -5   2  358.05   55.48
   6  -5   2  377.94   47.90
   6  -5   3   19.84   10.68
   6  -5   3   63.66   19.09
  -6   5  -3   39.29   19.03
   6  -5   3   46.22   18.43
   6  -5   3   15.15   15.00
  -6   5  -3   60.76   20.53
   6  -5   4  244.71   38.75
  -6   5  -4  187.84   40.80
   6  -5   4  206.53   32.93
   6  -5   4  205.77   36.68
   6  -5   4  218.58   46.93
  -6   5  -4  234.03   39.38
   6  -5   5  374.15   46.52
   6  -5   5  376.36   42.09
   6  -5   5  333.76   44.24
  -6   5  -5  298.01   52.88
   6  -5   6  552.86   56.83
   6  -5   6  481.01   50.57
   6  -5   6  513.54   55.35
   6  -5   7   29.35   13.50
   6  -5   7    1.89    9.94
   6  -5   7   14.46   11.17
   6  -5   8   26.81   12.69
   6  -5   8   15.09   11.85
   6  -5   8   36.58   16.91
   6  -5   9  427.12   49.57
   6  -5   9  363.20   51.04
   6  -5  10  173.49   36.58
   6  -5  11  100.85   28.95
   6  -4 -12   38.58   21.69
   6  -4 -11   16.86   15.62
   6  -4 -11   16.91   13.84
   6  -4 -10   88.46   34.41
   6  -4 -10   73.34   25.73
   6  -4 -10   65.19   17.75
   6  -4  -9  411.95   69.17
   6  -4  -9  625.21   57.76
   6  -4  -9  563.75   72.45
   6  -4  -8  142.68   34.63
   6  -4  -8  158.73   41.33
   6  -4  -8  153.26   31.17
   6  -4  -8  185.85   32.10
   6  -4  -8  190.89   34.20
   6  -4  -7   91.33   27.50
   6  -4  -7   72.03   20.00
   6  -4  -7   80.18   27.42
   6  -4  -7   72.25   21.73
   6  -4  -7  105.63   24.75
   6  -4  -6   28.05   12.58
   6  -4  -6   69.13   23.72
   6  -4  -6   47.22   14.85
   6  -4  -6   25.62   15.07
   6  -4  -6   49.29    9.13
  -6   4   6   52.60   11.45
   6  -4  -6   67.79   20.81
   6  -4  -5  348.08   39.48
   6  -4  -5  313.20   46.55
   6  -4  -5  364.15   28.43
  -6   4   5  329.66   31.49
   6  -4  -5  318.39   42.30
   6  -4  -5  345.87   46.05
   6  -4  -5  388.94   50.05
   6  -4  -5  339.82   48.96
   6  -4  -4  869.25   61.98
   6  -4  -4  808.39   76.84
   6  -4  -4  860.90   73.06
   6  -4  -4  753.52   66.37
   6  -4  -4  765.38   46.76
   6  -4  -4  948.64   78.56
   6  -4  -4  807.89   76.06
   6  -4  -4  890.89   70.09
   6  -4  -3  148.63   32.60
   6  -4  -3  168.06   26.91
   6  -4  -3  139.27   25.43
   6  -4  -3  152.10   29.68
   6  -4  -3  166.95   22.35
   6  -4  -3  133.82   30.65
   6  -4  -3  141.83   31.12
   6  -4  -3  141.06   28.81
   6  -4  -2  369.22   51.69
   6  -4  -2  335.94   39.27
   6  -4  -2  329.24   44.20
  -6   4   2  371.59   38.90
   6  -4  -2  383.22   35.41
   6  -4  -2  299.29   46.17
   6  -4  -2  327.63   35.32
   6  -4  -2  404.59   52.54
   6  -4  -2  320.33   42.81
   6  -4  -1   28.04   11.68
  -6   4   1   67.58   21.33
   6  -4  -1   61.36   21.94
   6  -4  -1   62.70   21.34
   6  -4  -1   56.20   14.92
  -6   4   1   42.57   13.97
   6  -4  -1   41.75   19.66
   6  -4   0  570.89   57.47
   6  -4   0  475.03   52.67
   6  -4   0  622.58   49.70
  -6   4   0  513.30   49.89
  -6   4   0  516.82   56.56
   6  -4   0  493.48   60.38
  -6   4   0  571.83   57.64
   6  -4   1  898.35   72.58
   6  -4   1  889.45   62.89
  -6   4  -1  976.21   71.92
  -6   4  -1  975.86   80.78
   6  -4   1  856.45   81.19
  -6   4  -1  887.77   72.68
   6  -4   1  867.33   71.59
   6  -4   2   38.90   15.85
  -6   4  -2   57.27   22.54
   6  -4   2   51.89   18.46
   6  -4   2   25.98   12.89
  -6   4  -2   52.73   18.00
  -6   4  -2   52.19   17.53
   6  -4   2   58.25   21.22
   6  -4   3  369.15   46.07
   6  -4   3  316.94   30.30
  -6   4  -3  497.07   63.00
   6  -4   3  373.41   42.74
   6  -4   3  288.21   40.22
  -6   4  -3  313.34   44.56
   6  -4   3  287.77   48.14
   6  -4   4  319.52   43.01
   6  -4   4  312.96   31.93
  -6   4  -4  245.87   46.73
   6  -4   4  434.70   47.24
   6  -4   4  267.48   50.22
  -6   4  -4  277.30   41.61
   6  -4   4  325.80   42.17
  -6   4  -5  312.14   43.90
   6  -4   5  207.52   35.87
   6  -4   5  269.23   31.12
   6  -4   5  280.92   40.58
   6  -4   5  284.00   39.29
   6  -4   6  250.59   32.15
  -6   4  -6  137.56   30.87
   6  -4   6  183.36   32.22
   6  -4   6  246.03   38.88
   6  -4   6  236.89   35.92
  -6   4  -7   44.40   18.35
   6  -4   7   41.34   17.15
   6  -4   7   61.24   17.10
   6  -4   7   53.27   19.38
   6  -4   7   63.85   20.06
   6  -4   8  447.70   49.63
   6  -4   8  417.96   53.09
   6  -4   9  288.88   38.98
   6  -4   9  311.52   46.49
   6  -4  10  101.47   26.49
   6  -4  11   16.55   12.25
   6  -3 -13   25.47   18.09
   6  -3 -12   -7.34   11.60
   6  -3 -12   29.55   28.78
   6  -3 -11  225.16   47.99
   6  -3 -11  149.78   45.66
   6  -3 -10  263.41   56.94
   6  -3 -10  413.17   44.06
   6  -3 -10  354.69   57.81
   6  -3  -9   96.77   29.53
   6  -3  -9  104.73   34.35
   6  -3  -9   81.15   20.85
   6  -3  -9  110.17   25.71
   6  -3  -9  104.90   22.36
   6  -3  -8   47.36   21.52
   6  -3  -8   30.43   13.76
   6  -3  -8   21.22   12.02
   6  -3  -8   25.10   11.39
   6  -3  -8   35.96   18.29
   6  -3  -7  364.52   39.34
   6  -3  -7  410.29   48.28
   6  -3  -7  410.73   57.42
  -6   3   7  353.83   27.16
   6  -3  -7  353.74   42.94
   6  -3  -7  322.62   47.66
   6  -3  -6  395.98   39.56
   6  -3  -6  396.87   27.81
   6  -3  -6  528.26   54.81
   6  -3  -6  383.03   51.47
  -6   3   6  431.49   33.51
   6  -3  -6  439.50   48.42
   6  -3  -6  515.16   58.70
   6  -3  -5  889.36   79.05
   6  -3  -5  796.98   56.64
   6  -3  -5  855.70   45.95
   6  -3  -5  935.27   71.39
   6  -3  -5  838.18   70.00
   6  -3  -5  840.60   71.08
   6  -3  -5  892.09   77.50
   6  -3  -4  187.82   26.85
   6  -3  -4  160.48   33.37
   6  -3  -4  216.69   35.29
   6  -3  -4  149.53   26.55
  -6   3   4  138.03   29.17
   6  -3  -4  147.23   28.06
   6  -3  -4  152.79   19.58
   6  -3  -4  167.93   31.53
   6  -3  -4  176.73   33.99
   6  -3  -3  190.46   27.59
   6  -3  -3  150.30   28.85
  -6   3   3  145.45   30.11
   6  -3  -3  136.75   28.41
   6  -3  -3  131.85   19.65
   6  -3  -3  200.52   36.91
   6  -3  -3  171.46   32.97
   6  -3  -3  208.16   34.98
   6  -3  -2  859.10   79.22
   6  -3  -2  894.77   71.43
  -6   3   2  896.16   74.65
   6  -3  -2  967.70   72.98
  -6   3   2  899.54   60.87
   6  -3  -2  971.53   57.54
   6  -3  -2 1043.38   81.49
   6  -3  -2  905.12   54.51
   6  -3  -2  961.49   80.20
   6  -3  -1  786.49   65.41
  -6   3   1  808.59   70.58
   6  -3  -1  764.05   64.93
  -6   3   1  815.09   59.51
   6  -3  -1  772.52   53.99
   6  -3  -1  741.79   72.75
  -6   3   1  799.55   69.11
   6  -3  -1  727.52   70.24
   6  -3  -1  860.79   44.97
   6  -3   0 1060.79   77.68
  -6   3   0 1183.16   86.79
   6  -3   0 1264.33   84.29
  -6   3   0 1171.47   75.49
   6  -3   0 1093.49   68.19
  -6   3   0 1124.99   86.60
   6  -3   0 1161.04   90.01
   6  -3   0 1187.76   46.13
  -6   3  -1    1.84   12.52
   6  -3   1   -0.40    5.49
  -6   3  -1    4.08    5.87
   6  -3   1   16.16   12.16
   6  -3   1   -3.70    6.43
  -6   3  -1    7.55    7.96
   6  -3   1    2.66    8.32
  -6   3  -1    4.00    5.66
  -6   3  -2  197.41   39.66
   6  -3   2  220.26   34.71
   6  -3   2  222.35   34.82
  -6   3  -2  257.88   39.21
   6  -3   2  211.85   31.00
  -6   3  -2  220.09   33.89
   6  -3   2  253.74   15.94
   6  -3   2  195.69   37.19
  -6   3  -2  289.96   38.42
   6  -3   3  581.49   56.01
   6  -3   3  509.35   49.97
  -6   3  -3  587.35   69.05
  -6   3  -3  532.14   54.16
   6  -3   3  575.50   31.24
   6  -3   3  578.18   65.10
   6  -3   3  631.88   57.90
   6  -3   4  213.35   32.67
  -6   3  -4  216.84   44.52
   6  -3   4  213.41   32.75
   6  -3   4  178.25   31.03
  -6   3  -4  162.52   29.89
   6  -3   4  199.00   41.17
   6  -3   4  159.70   19.27
   6  -3   5  453.17   49.04
   6  -3   5  496.62   52.27
  -6   3  -5  376.54   46.97
   6  -3   5  459.57   37.64
   6  -3   5  439.47   47.64
  -6   3  -6   97.89   25.02
   6  -3   6   68.33   20.29
   6  -3   6   73.62   17.29
   6  -3   6   77.01   21.03
   6  -3   6   70.25   19.44
   6  -3   7  448.23   51.97
   6  -3   7  386.29   47.02
   6  -3   7  487.71   49.78
  -6   3  -7  448.05   52.78
   6  -3   8   79.59   22.41
   6  -3   8  110.08   23.80
   6  -3   9   53.08   18.67
   6  -3  10   -8.33   10.82
   6  -3  11   11.96    9.39
   6  -2 -13   94.48   34.14
  -6   2  13   81.09   29.50
  -6   2  12    8.22    9.14
   6  -2 -12   11.40   15.38
   6  -2 -12   28.21   21.63
   6  -2 -11   82.22   29.10
  -6   2  11   80.78   27.32
   6  -2 -11   91.26   19.64
   6  -2 -11  111.15   39.60
   6  -2 -10   42.97   19.82
  -6   2  10   71.88   23.17
   6  -2 -10   61.90   29.50
   6  -2 -10   51.81   17.53
   6  -2 -10   81.40   19.26
   6  -2  -9   96.38   29.21
  -6   2   9   55.68   20.66
   6  -2  -9  100.53   19.89
   6  -2  -9   67.39   26.74
   6  -2  -9  109.48   24.36
   6  -2  -9   85.28   20.01
   6  -2  -8  174.10   24.83
  -6   2   8  191.22   18.71
   6  -2  -8  135.35   35.49
   6  -2  -8  194.65   33.31
   6  -2  -8  175.79   29.28
   6  -2  -8  155.39   34.07
   6  -2  -7   16.67    8.68
   6  -2  -7  -24.96   14.85
   6  -2  -7    5.00   11.13
  -6   2   7   -0.48    3.60
   6  -2  -7   -3.60    6.46
  -6   2   7   25.16   14.55
   6  -2  -7   20.33   14.82
   6  -2  -6 1336.98   71.43
   6  -2  -6 1467.01   60.59
   6  -2  -6 1508.50   93.89
   6  -2  -6 1380.08   98.28
  -6   2   6 1357.34   65.41
   6  -2  -6 1242.70   90.39
  -6   2   6 1545.05   98.13
   6  -2  -6 1331.56   84.99
  -6   2   5  348.64   44.83
   6  -2  -5  306.79   39.40
   6  -2  -5  321.43   27.50
   6  -2  -5  335.21   48.03
   6  -2  -5  309.84   41.83
   6  -2  -5  301.82   40.42
   6  -2  -5  256.97   36.90
   6  -2  -5  272.01   40.00
   6  -2  -4  248.65   35.17
  -6   2   4  187.48   33.06
   6  -2  -4  267.65   42.43
   6  -2  -4  249.27   25.71
   6  -2  -4  280.25   38.15
   6  -2  -4  229.54   32.35
   6  -2  -4  229.46   35.37
   6  -2  -4  234.07   36.71
  -6   2   3  664.80   62.42
   6  -2  -3  695.73   59.88
   6  -2  -3  745.30   72.25
   6  -2  -3  822.62   50.79
   6  -2  -3  648.99   58.62
   6  -2  -3  573.62   45.32
  -6   2   3  609.01   47.31
   6  -2  -3  662.42   61.32
   6  -2  -3  620.14   60.87
   6  -2  -2  811.13   75.00
  -6   2   2  748.95   66.04
   6  -2  -2  854.57   66.70
   6  -2  -2  714.92   42.65
  -6   2   2  836.20   69.24
   6  -2  -2  741.62   61.83
  -6   2   2  816.47   56.59
   6  -2  -2  733.64   50.28
   6  -2  -2  694.16   63.73
   6  -2  -2  838.39   70.71
   6  -2  -1  782.50   63.76
   6  -2  -1  751.63   72.79
  -6   2   1  901.85   73.16
  -6   2   1  905.05   61.91
   6  -2  -1  818.34   55.29
  -6   2   1  769.67   67.11
   6  -2  -1  739.64   62.66
   6  -2  -1  781.28   68.93
   6  -2   0  552.56   52.36
  -6   2   0  590.67   61.65
  -6   2   0  522.40   47.97
   6  -2   0  541.42   45.89
  -6   2   0  475.53   52.08
   6  -2   0  503.49   50.20
   6  -2   0  462.10   52.69
   6  -2   1  450.16   46.89
  -6   2  -1  314.64   47.52
  -6   2  -1  463.34   46.54
   6  -2   1  393.67   40.42
  -6   2  -1  366.27   45.73
   6  -2   1  347.67   41.80
   6  -2   1  311.51   43.17
   6  -2   2  450.37   47.01
  -6   2  -2  526.13   63.69
  -6   2  -2  493.21   50.32
   6  -2   2  560.43   49.89
  -6   2  -2  511.32   54.93
   6  -2   2  417.91   46.17
   6  -2   2  472.73   54.52
  -6   2  -2  556.12   51.63
   6  -2   3 1741.66   99.63
  -6   2  -3 1775.94  125.30
   6  -2   3 1750.25   97.48
  -6   2  -3 1751.79  106.61
   6  -2   3 1844.18  101.89
   6  -2   3 1837.56  113.94
  -6   2  -3 1880.64  100.33
   6  -2   4  443.60   47.72
  -6   2  -4  609.86   74.96
   6  -2   4  546.39   52.25
  -6   2  -4  451.34   47.32
   6  -2   4  385.40   52.90
  -6   2  -4  444.69   51.49
   6  -2   4  488.01   48.77
   6  -2   5   -0.46    5.01
   6  -2   5   12.12   11.51
  -6   2  -5    5.57    7.34
   6  -2   5   19.17    9.67
  -6   2  -6  104.18   22.47
   6  -2   6  122.90   25.19
   6  -2   6  124.02   24.03
   6  -2   6  108.21   25.08
   6  -2   7  152.02   29.23
   6  -2   7  251.63   34.81
  -6   2  -7  226.91   34.28
   6  -2   7  214.69   34.90
   6  -2   8  280.89   35.36
   6  -2   8  278.33   41.76
   6  -2   9   57.49   21.38
   6  -2  10   -2.70   12.64
   6  -2  10   45.72   31.13
   6  -2  11   67.34   23.04
  -6   1  13  -10.45   14.63
  -6   1  12   10.67    9.01
   6  -1 -11  297.62   35.38
  -6   1  11  310.14   51.59
   6  -1 -11  267.54   58.47
   6  -1 -10    9.42    8.58
   6  -1 -10    4.93   10.23
   6  -1 -10    5.38    8.53
  -6   1  10   19.36   13.43
   6  -1  -9   23.67    9.23
  -6   1   9   30.91    7.76
  -6   1   9   35.18   15.52
   6  -1  -9   22.35   10.65
  -6   1   9   10.97   12.87
   6  -1  -9   31.42   15.40
   6  -1  -9   43.51   20.90
   6  -1  -8  161.20   29.35
   6  -1  -8  139.52   35.12
  -6   1   8  106.86   25.45
   6  -1  -8   69.84   18.91
  -6   1   8   68.38   12.12
   6  -1  -8  102.88   17.30
  -6   1   8  136.41   30.68
  -6   1   7  329.98   28.74
   6  -1  -7  315.90   38.96
   6  -1  -7  277.30   45.71
   6  -1  -7  303.29   41.42
  -6   1   7  334.20   43.75
   6  -1  -6    7.89    9.97
   6  -1  -6   12.40    9.74
   6  -1  -6   14.46    8.91
   6  -1  -6   27.91    7.98
   6  -1  -6   31.07   12.16
  -6   1   6   11.83    7.50
   6  -1  -6   -4.12    6.57
   6  -1  -5  116.58   23.76
  -6   1   5  147.08   28.62
   6  -1  -5  166.99   20.30
   6  -1  -5  185.11   34.85
   6  -1  -5  127.07   26.16
   6  -1  -5  215.89   32.25
   6  -1  -5  145.72   27.82
  -6   1   4  350.71   43.40
   6  -1  -4  346.87   40.86
   6  -1  -4  325.48   29.87
   6  -1  -4  348.41   48.61
   6  -1  -4  362.45   42.44
   6  -1  -4  257.56   37.59
  -6   1   3  360.87   43.82
   6  -1  -3  460.16   47.64
   6  -1  -3  334.25   31.71
   6  -1  -3  423.30   53.25
  -6   1   3  399.28   37.38
   6  -1  -3  479.41   49.55
   6  -1  -3  414.89   46.75
   6  -1  -2  799.81   64.19
   6  -1  -2  881.09   55.15
  -6   1   2  780.99   67.20
  -6   1   2  869.76   58.46
   6  -1  -2  876.16   67.63
   6  -1  -2  915.67   71.10
  -6   1   1  359.73   46.34
  -6   1   1  361.70   44.89
   6  -1  -1  433.41   45.91
   6  -1  -1  398.77   46.59
  -6   1   1  446.90   42.38
   6  -1  -1  431.61   39.43
  -6   1   0  655.71   66.54
  -6   1   0  611.95   58.12
   6  -1   0  594.42   54.15
   6  -1   0  581.33   56.57
  -6   1   0  590.24   50.83
   6  -1   0  567.30   47.49
  -6   1  -1 1568.49   89.70
   6  -1   1 1566.04   84.25
  -6   1  -1 1499.69  107.49
  -6   1  -1 1489.78   94.60
   6  -1   1 1512.41   89.32
  -6   1  -2  847.06   66.11
   6  -1   2  747.30   58.61
  -6   1  -2  781.09   78.82
   6  -1   2  694.88   59.05
  -6   1  -2  735.99   65.50
   6  -1   2  757.40   61.14
   6  -1   3  222.16   32.61
  -6   1  -3  219.98   44.47
   6  -1   3  219.11   31.83
   6  -1   3  181.72   29.34
  -6   1  -3  161.51   29.91
  -6   1  -4  534.36   47.41
   6  -1   4  503.56   50.01
   6  -1   4  522.76   50.85
   6  -1   4  529.75   50.43
  -6   1  -4  438.69   50.36
  -6   1  -5  369.56   38.73
   6  -1   5  394.19   46.01
   6  -1   5  358.38   42.31
   6  -1   5  350.27   40.49
  -6   1  -5  348.27   44.72
   6  -1   6  906.28   68.79
   6  -1   6 1037.25   70.57
  -6   1  -6  981.25   64.77
   6  -1   6  963.14   75.46
   6  -1   7  528.98   48.73
   6  -1   7  508.64   55.01
   6  -1   8  163.16   56.68
   6  -1   8   57.86   18.72
   6  -1   9   41.39   33.87
   6  -1   9   34.31   17.11
   6  -1  10  107.39   49.57
   6  -1  10   99.58   26.65
  -6   0  13   30.83   19.33
   6   0 -12  372.39   38.91
  -6   0  12  306.13   53.70
   6   0 -11   43.72   15.85
  -6   0  11  130.39   27.62
   6   0 -11  101.28   20.96
  -6   0  11   42.00   18.70
   6   0 -10   97.66   15.62
  -6   0  10   64.87   11.20
  -6   0  10   96.47   26.57
  -6   0  10   73.36   21.79
   6   0 -10   57.17   15.64
   6   0 -10   65.60   18.94
   6   0  -9    6.92    8.65
   6   0  -9   11.32    5.02
  -6   0   9    3.22    3.27
  -6   0   9    5.94    8.78
   6   0  -9   19.79   11.29
  -6   0   9   -3.55    8.68
  -6   0   8    2.05    8.89
   6   0  -8   15.27    8.65
  -6   0   8   15.52   11.65
  -6   0   7  156.44   30.50
  -6   0   7  166.65   30.97
  -6   0   7  108.76   24.50
   6   0  -7  157.47   26.91
   6   0  -6  110.28   28.63
   6   0  -6   81.07   14.10
  -6   0   6   80.53   20.32
   6   0  -6   83.96   21.01
  -6   0   6   54.28   16.99
   6   0  -6   68.68   18.32
   6   0  -5  183.75   34.44
  -6   0   5  137.34   22.72
  -6   0   5   99.71   17.94
   6   0  -5  114.51   17.76
   6   0  -5  140.93   25.59
  -6   0   5  117.36   24.98
   6   0  -5  130.66   30.89
   6   0  -4  174.30   22.27
   6   0  -4  123.52   24.90
  -6   0   4  131.87   26.47
  -6   0   4  149.23   22.11
   6   0  -4  185.18   28.83
   6   0  -4  154.95   32.61
   6   0  -3  426.56   45.12
   6   0  -3  432.62   53.30
   6   0  -3  397.14   35.90
  -6   0   3  439.00   48.33
  -6   0   3  519.41   43.52
   6   0  -3  471.33   46.93
   6   0  -3  437.31   47.05
  -6   0   2  185.94   31.12
   6   0  -2  225.87   27.58
  -6   0   2  191.52   27.43
  -6   0   2  205.13   34.81
   6   0  -2  258.74   41.78
   6   0  -2  281.81   36.67
   6   0  -2  203.14   31.28
   6   0  -2  238.70   34.35
  -6   0   1  140.95   28.78
   6   0  -1  116.63   23.63
  -6   0   1  126.06   25.54
   6   0  -1  124.40   25.26
   6   0  -1  146.40   26.19
   6   0  -1  134.30   22.60
  -6   0   1  157.05   25.01
   6   0   0   19.51    8.98
  -6   0   0    3.78    4.51
   6   0   0    4.46    6.44
  -6   0   0   27.34   12.64
  -6   0   0   16.90   14.68
  -6   0  -1  367.88   51.80
  -6   0  -1  332.98   39.46
  -6   0  -1  337.71   42.37
   6   0   1  361.44   40.96
   6   0   1  319.44   36.94
  -6   0  -2 1485.11  112.29
   6   0   2 1604.30   88.24
  -6   0  -2 1576.05   96.84
   6   0   2 1439.45   86.72
  -6   0  -3  405.98   60.39
   6   0   3  479.94   47.50
   6   0   3  472.24   46.93
  -6   0  -3  420.70   48.05
   6   0   4  779.24   62.84
   6   0   4  648.58   56.31
  -6   0  -4  704.95   63.54
   6   0   4  732.20   60.69
   6   0   5  289.86   39.49
   6   0   5  315.61   37.68
  -6   0  -5  297.79   40.83
   6   0   5  328.19   39.88
   6   0   6  568.76   56.76
   6   0   6  677.85   55.39
  -6   0  -6  578.60   57.40
   6   0   6  570.84   52.99
   6   0   7  550.76   48.50
   6   0   7  589.69   58.51
   6   0   7  657.11  112.30
   6   0   8   41.42   25.83
   6   0   8   41.30   16.36
   6   0   9  356.97   90.78
   6   0   9  348.39   47.67
   6   0  10  229.31   38.27
  -6  -1  13  410.26   63.48
  -6  -1  12  281.87   50.98
   6   1 -12  373.66   40.31
  -6  -1  11  209.64   41.78
  -6  -1  11  178.09   32.22
   6   1 -11  189.35   29.03
   6   1 -11  138.17   25.45
   6   1 -10  257.95   22.97
   6   1 -10  235.67   39.45
  -6  -1  10  318.83   42.88
  -6  -1  10  286.85   47.03
   6   1 -10  308.32   37.85
  -6  -1   9  235.96   41.15
  -6  -1   9  168.56   31.05
   6   1  -9  203.72   30.79
  -6  -1   9  137.11   31.95
  -6  -1   8  280.97   42.96
  -6  -1   8  251.61   39.75
  -6  -1   8  241.52   36.67
   6   1  -8  231.22   33.21
  -6  -1   7  156.13   21.97
  -6  -1   7  280.14   39.08
  -6  -1   7  152.52   30.95
  -6  -1   7  237.24   35.94
   6   1  -7  186.31   29.47
  -6  -1   6    8.78    9.72
   6   1  -6   -4.67    8.18
  -6  -1   6    8.53    7.30
   6   1  -6   20.53   15.51
   6   1  -6    2.50    4.15
  -6  -1   6    7.73    4.41
   6   1  -6    9.37    7.67
  -6  -1   6    6.06    9.39
   6   1  -5   11.46    8.35
  -6  -1   5    5.34    5.87
  -6  -1   5    1.05    3.74
   6   1  -5    5.56    6.82
   6   1  -5    4.55    6.26
  -6  -1   5   -2.04    4.56
   6   1  -5    3.40    6.11
   6   1  -4  373.54   41.62
  -6  -1   4  381.83   44.63
   6   1  -4  338.53   47.63
   6   1  -4  314.47   31.66
  -6  -1   4  329.39   34.57
   6   1  -4  397.48   40.83
  -6  -1   4  384.91   32.76
  -6  -1   3  100.13   13.79
   6   1  -3  108.31   18.87
  -6  -1   3  112.47   20.40
  -6  -1   3  126.59   25.13
   6   1  -3  111.34   22.39
   6   1  -3  132.87   24.27
  -6  -1   3   83.01   21.51
   6   1  -3  125.00   31.34
  -6  -1   2   49.78   18.72
   6   1  -2   80.46   23.04
  -6  -1   2   70.12   16.54
   6   1  -2   66.57   15.45
  -6  -1   2   96.52   23.37
   6   1  -2   94.87   21.15
   6   1  -2   67.17   17.39
   6   1  -2   93.81   23.14
  -6  -1   1   -2.60    8.52
   6   1  -1   12.90   10.97
  -6  -1   1   15.25   13.97
   6   1  -1    1.52    6.23
   6   1  -1    6.77    4.49
  -6  -1   1    6.72    4.98
   6   1   0  191.66   27.40
  -6  -1   0  192.31   30.10
   6   1   0  171.15   29.38
  -6  -1   0  193.24   32.34
  -6  -1   0  151.91   32.75
   6   1   1  318.18   36.59
  -6  -1  -1  277.35   36.74
  -6  -1  -1  398.57   46.03
   6   1   1  286.77   36.51
  -6  -1  -1  265.76   44.82
  -6  -1  -2   33.18   12.76
   6   1   2   38.62   16.31
  -6  -1  -2   35.57   17.34
   6   1   2   43.88   14.55
   6   1   2   31.33   12.57
  -6  -1  -3  194.36   33.25
   6   1   3  223.34   32.21
   6   1   3  243.50   33.84
  -6  -1  -3  203.72   43.39
   6   1   3  187.28   28.79
   6   1   4    2.60    4.80
   6   1   4   -0.99   26.31
  -6  -1  -4    8.37    5.43
   6   1   4   16.94   10.08
   6   1   5  725.06   62.42
   6   1   5  679.79   56.35
  -6  -1  -5  664.16   62.19
   6   1   6  564.74  104.81
   6   1   6  599.96   57.92
   6   1   6  587.76   51.65
   6   1   7  295.68   78.19
   6   1   7   78.09   21.13
   6   1   8  285.37   79.08
   6   1   8  419.05   49.90
   6   1   9  236.56   81.43
   6   1   9  213.06   35.92
  -6  -2  14  382.75   64.29
  -6  -2  13  782.37   87.37
  -6  -2  12  607.13   73.76
   6   2 -12  606.99   53.76
  -6  -2  11  184.72   23.70
  -6  -2  11  226.89   35.80
   6   2 -11  227.58   33.21
   6   2 -11  234.97   33.29
  -6  -2  11  196.59   41.24
  -6  -2  10  255.53   38.92
   6   2 -10  227.33   33.45
  -6  -2  10  277.00   45.04
   6   2 -10  260.82   46.51
  -6  -2  10  281.71   29.64
   6   2  -9 1097.96   75.15
  -6  -2   9 1132.42   63.69
   6   2  -9 1059.07   96.68
  -6  -2   9 1108.32   81.45
  -6  -2   9 1099.97   88.90
  -6  -2   9  977.77   87.01
   6   2  -8 1210.57   79.01
  -6  -2   8 1250.44   85.74
   6   2  -8  913.81   94.74
  -6  -2   8 1113.08   64.13
  -6  -2   8 1206.75   90.09
  -6  -2   8 1291.05   93.41
  -6  -2   7  162.09   29.98
   6   2  -7  178.94   29.70
  -6  -2   7  236.72   36.92
   6   2  -7  204.06   37.46
  -6  -2   7  177.40   24.52
   6   2  -7  192.14   28.91
  -6  -2   7  184.73   32.99
  -6  -2   6   71.83   20.19
   6   2  -6   86.36   20.86
   6   2  -6   69.61   21.24
  -6  -2   6   87.81   21.48
  -6  -2   6   76.28   17.12
   6   2  -6   87.32   19.48
  -6  -2   6   97.34   23.59
   6   2  -5  223.80   39.37
   6   2  -5  296.35   30.54
  -6  -2   5  272.06   31.85
  -6  -2   5  237.80   31.38
   6   2  -5  285.65   33.71
   6   2  -5  222.85   32.70
  -6  -2   5  300.23   40.12
   6   2  -4   97.08   25.69
  -6  -2   4  104.89   18.89
  -6  -2   4   95.98   19.77
   6   2  -4   85.58   17.16
   6   2  -4   52.66   14.62
  -6  -2   4   80.69   20.04
   6   2  -4   80.58   19.98
  -6  -2   3  384.48   45.18
  -6  -2   3  266.87   38.18
   6   2  -3  260.74   42.07
   6   2  -3  343.38   34.79
  -6  -2   3  369.16   30.92
  -6  -2   3  345.11   37.23
   6   2  -3  304.28   34.27
   6   2  -3  334.77   40.05
  -6  -2   2   16.01    8.83
   6   2  -2   20.12    9.45
  -6  -2   2   20.60   13.56
   6   2  -2   21.55   10.64
  -6  -2   2   32.54   14.31
   6   2  -2   49.18   16.46
   6   2  -1   28.82   10.82
  -6  -2   1   35.90   12.50
  -6  -2   1   41.95   17.25
   6   2  -1   50.77   13.73
  -6  -2   1   30.19   12.70
   6   2  -1   30.84   12.72
  -6  -2   0  212.98   35.04
   6   2   0  232.35   33.39
  -6  -2   0  198.33   37.34
   6   2   0  177.62   28.21
   6   2   0  233.53   29.31
  -6  -2   0  185.44   16.86
   6   2   0  184.36   26.91
  -6  -2  -1    3.60    4.88
   6   2   1    4.22    6.68
   6   2   1   -2.97    6.34
  -6  -2  -1    7.65    8.18
   6   2   1   -0.97    4.97
  -6  -2  -2    3.17    9.93
   6   2   2   -3.88   22.10
  -6  -2  -2   10.87    7.88
   6   2   2   -3.57    7.55
   6   2   2   -4.07    6.68
  -6  -2  -2   -5.50    8.05
   6   2   2    3.66    4.85
   6   2   3  -15.63   19.10
  -6  -2  -3   48.75   15.00
   6   2   3   34.63   14.09
  -6  -2  -3   27.78   13.56
  -6  -2  -3   28.76   15.64
   6   2   3   52.75   15.47
   6   2   4  172.82   55.16
   6   2   4  153.77   27.88
  -6  -2  -4  153.46   29.61
   6   2   4  108.94   23.32
  -6  -2  -4  125.06   36.05
   6   2   5  258.19   37.09
  -6  -2  -5  247.85   39.89
   6   2   5  290.45   37.10
   6   2   5  230.06   70.59
   6   2   6   84.57   22.05
  -6  -2  -6   24.98   14.93
   6   2   6   59.86   16.11
   6   2   7   16.91   30.74
   6   2   7   13.09    6.63
   6   2   8  293.61   91.21
   6   2   8  156.14   30.38
  -6  -3  14  329.05   59.14
  -6  -3  13  425.11   63.33
  -6  -3  12   95.84   29.78
   6   3 -12   67.08   19.06
  -6  -3  11  826.86   55.91
  -6  -3  11  726.75   76.78
   6   3 -11  852.70   67.03
   6   3 -11  713.32   66.91
  -6  -3  10 1096.07   65.92
   6   3 -10 1404.35  116.27
  -6  -3  10 1045.46   89.20
   6   3 -10 1155.25   78.77
  -6  -3   9  762.01   53.79
   6   3  -9  929.25  100.38
  -6  -3   9  710.12   74.92
  -6  -3   9  717.24   70.77
   6   3  -9  732.64   62.23
  -6  -3   8  866.57   72.07
   6   3  -8  931.75  100.33
  -6  -3   8  802.25   56.15
  -6  -3   8 1008.41   84.60
  -6  -3   8  864.19   74.70
   6   3  -8  813.10   65.31
  -6  -3   7  167.18   30.75
   6   3  -7  178.46   30.31
   6   3  -7  183.75   35.27
   6   3  -7  181.20   45.96
  -6  -3   7  211.22   36.69
  -6  -3   7  196.43   27.25
   6   3  -7  213.27   30.38
  -6  -3   7  214.65   36.45
  -6  -3   6 1653.43  100.72
  -6  -3   6 1635.39   84.35
   6   3  -6 1541.09  104.73
   6   3  -6 1531.85  133.04
  -6  -3   6 1530.38   95.62
  -6  -3   6 1403.46   91.12
   6   3  -6 1539.84   83.17
   6   3  -6 1434.33   89.23
  -6  -3   5 1221.47   86.06
   6   3  -5 1160.89  118.76
   6   3  -5 1318.46   96.27
  -6  -3   5 1253.11   74.44
  -6  -3   5 1223.00   79.40
   6   3  -5 1251.64   72.25
   6   3  -5 1218.36   80.70
   6   3  -4  410.78   53.18
   6   3  -4  416.42   39.46
   6   3  -4  479.63   78.58
  -6  -3   4  487.11   52.14
  -6  -3   4  521.34   46.90
   6   3  -4  384.06   37.37
   6   3  -4  459.94   48.43
   6   3  -3  479.45   57.57
  -6  -3   3  472.91   51.93
   6   3  -3  520.11   44.69
   6   3  -3  687.24   95.64
  -6  -3   3  464.09   51.18
  -6  -3   3  552.15   49.55
   6   3  -3  485.26   41.04
   6   3  -3  534.48   52.12
   6   3  -2   25.63   25.82
  -6  -3   2   27.31   16.97
  -6  -3   2    7.59   10.94
   6   3  -2   -1.21    5.34
   6   3  -2    4.13    4.01
  -6  -3   2    5.54    5.06
   6   3  -2   14.48   12.21
   6   3  -1  271.61   33.31
   6   3  -1  309.55   65.73
  -6  -3   1  334.63   46.22
   6   3  -1  294.21   31.08
   6   3  -1  240.27   34.69
  -6  -3   1  379.61   46.43
  -6  -3   0  101.41   25.39
   6   3   0   50.41   16.57
  -6  -3   0   72.59   23.49
   6   3   0  151.46   51.65
   6   3   0  103.19   21.62
   6   3   0   96.12   17.92
   6   3   0   97.85   19.47
  -6  -3  -1    9.30   12.44
   6   3   1   10.03   23.76
  -6  -3  -1   18.43    8.74
   6   3   1   13.60   10.23
   6   3   1   12.22    5.48
  -6  -3  -1    8.86    8.10
   6   3   1    9.39    5.26
   6   3   1    7.82    6.25
  -6  -3  -2   72.19   26.36
   6   3   2  110.55   43.96
  -6  -3  -2  112.46   21.01
   6   3   2   72.02   18.21
   6   3   2  137.55   26.34
  -6  -3  -2  101.48   27.58
   6   3   2   87.70   14.28
   6   3   2   80.45   16.73
   6   3   3  146.70   59.79
   6   3   3  127.02   25.72
  -6  -3  -3  143.99   36.21
   6   3   3  157.41   28.21
  -6  -3  -3  108.81   25.06
   6   3   4   31.72   24.76
  -6  -3  -4   77.45   22.08
   6   3   4   51.29   17.63
  -6  -3  -4   50.93   22.91
   6   3   4   49.26   16.24
   6   3   5   20.27   11.53
  -6  -3  -5   10.90   12.41
   6   3   5   34.95   28.29
   6   3   6   14.03   32.74
   6   3   6    7.38    5.11
   6   3   7    4.92   33.69
   6   3   7    5.05    5.95
   6   3   8  161.76   71.97
   6   3   8   93.46   23.60
   6   4 -14   86.08   33.99
  -6  -4  14  156.33   40.75
   6   4 -13    0.52   24.07
  -6  -4  13   32.59   23.07
  -6  -4  12   59.59   24.55
  -6  -4  11  362.28   38.40
   6   4 -11  318.09   46.95
   6   4 -11  293.09   40.57
  -6  -4  11  352.99   52.82
  -6  -4  10  462.23   43.83
   6   4 -10  457.89   69.13
  -6  -4  10  437.73   56.87
   6   4 -10  443.75   50.09
   6   4  -9  757.55  100.52
  -6  -4   9  623.20   72.12
  -6  -4   9  541.84   47.63
  -6  -4   9  635.43   65.50
   6   4  -9  493.81   52.51
   6   4  -8  819.13  104.71
  -6  -4   8  686.49   73.58
  -6  -4   8  686.33   54.16
  -6  -4   8  708.55   66.68
   6   4  -8  720.25   62.35
   6   4  -7 1182.13  126.94
   6   4  -7  920.39   80.76
  -6  -4   7 1049.19   87.08
  -6  -4   7 1001.20   77.85
   6   4  -7 1004.36   67.25
   6   4  -7 1025.01   75.10
  -6  -4   7 1058.81   68.55
   6   4  -6 1492.02  143.54
   6   4  -6 1394.28   99.70
  -6  -4   6 1301.71   86.41
   6   4  -6 1420.05   77.94
   6   4  -6 1378.89   88.76
  -6  -4   6 1386.00   80.70
   6   4  -5 1058.65   86.69
   6   4  -5 1239.77  131.47
   6   4  -5 1036.67   75.59
   6   4  -5 1037.68   63.14
   6   4  -4  830.40   76.71
   6   4  -4  810.54  108.74
   6   4  -4  817.52   53.19
   6   4  -4  800.33   65.51
   6   4  -3  169.85   52.87
   6   4  -3  129.67   25.44
   6   4  -3  131.50   22.83
   6   4  -3  112.26   18.73
  -6  -4   3  102.03   25.00
   6   4  -2 1896.31  177.03
  -6  -4   2 1775.15  107.07
   6   4  -2 1752.31   79.21
   6   4  -2 1901.26  104.94
   6   4  -2 1829.54   94.21
   6   4  -1  519.37   52.41
   6   4  -1  505.62   47.22
   6   4  -1  332.81   76.67
  -6  -4   1  604.58   62.20
   6   4  -1  502.45   37.47
   6   4  -1  534.27   45.23
   6   4   0  244.78   32.94
   6   4   0  173.99   55.61
  -6  -4   0  188.54   36.62
   6   4   0  209.58   33.74
   6   4   0  245.66   25.50
   6   4   0  199.71   24.54
   6   4   1  303.15   40.05
   6   4   1  377.32   85.46
   6   4   1  358.33   40.81
  -6  -4  -1  263.03   45.64
   6   4   1  305.29   28.03
   6   4   1  242.05   23.68
  -6  -4  -2    9.82   15.51
   6   4   2   14.69   10.03
   6   4   2   17.02    6.50
   6   4   2   -6.77    4.99
   6   4   3   70.67   19.20
  -6  -4  -3   48.46   18.45
  -6  -4  -3   53.98   24.63
  -6  -4  -4   22.18   17.46
   6   4   4   12.98    8.65
  -6  -4  -4   10.40   10.89
   6   4   4   -4.65   11.89
   6   4   5   -6.18   20.67
  -6  -4  -5   -0.24    7.11
   6   4   5   22.93   13.33
  -6  -4  -5   -5.73   15.82
   6   4   5   13.30   14.12
   6   4   6   29.01   14.09
   6   4   6   96.19   63.77
   6   4   7   44.60   15.94
   6   4   7   51.92   44.88
   6   5 -14   13.00   31.35
  -6  -5  14   26.40   22.64
   6   5 -13   56.15   32.25
  -6  -5  13   -1.57   10.37
   6   5 -12   -4.60   14.28
  -6  -5  12   13.96   15.18
   6   5 -11  113.05   29.95
  -6  -5  11   91.50   27.36
   6   5 -10  195.78   34.01
   6   5 -10  229.66   50.81
  -6  -5  10  166.46   36.24
   6   5  -9  120.94   27.36
  -6  -5   9  188.13   35.93
   6   5  -9  191.49   48.96
  -6  -5   8   78.20   28.76
   6   5  -8   62.62   18.41
  -6  -5   8   64.33   21.94
   6   5  -8   11.42   23.35
   6   5  -7  364.16   45.93
   6   5  -7  352.61   49.05
   6   5  -7  418.22   40.79
  -6  -5   7  284.82   40.71
   6   5  -7  442.09   87.94
   6   5  -6  913.17   80.80
   6   5  -6  991.07  129.73
   6   5  -6 1008.08   76.35
  -6  -5   6  861.23   68.53
   6   5  -6 1009.23   62.61
   6   5  -5  902.25   81.07
   6   5  -5  920.98  125.93
   6   5  -5  825.13   69.28
   6   5  -5  793.74   53.10
   6   5  -4 1077.81  138.39
   6   5  -4  843.69   70.74
   6   5  -4  891.45   53.53
   6   5  -3 1332.25  159.42
   6   5  -3 1289.55   63.68
   6   5  -3 1288.44   88.09
  -6  -5   2  688.80   64.32
   6   5  -2  621.90   39.32
   6   5  -2  647.07   61.09
   6   5  -2  825.09  127.56
   6   5  -1 1116.52   83.00
   6   5  -1 1178.42  155.05
  -6  -5   1 1127.22   86.97
   6   5  -1 1102.37   51.64
   6   5  -1 1309.26   69.75
   6   5  -1 1148.26   75.86
   6   5   0  368.63   47.25
   6   5   0  430.74   45.48
   6   5   0  545.83  110.81
  -6  -5   0  371.89   51.25
   6   5   0  403.30   26.78
   6   5   0  408.39   32.34
   6   5   1  213.66   33.15
  -6  -5  -1  195.70   38.78
   6   5   1  268.22   84.17
  -6  -5  -2  319.28   53.47
   6   5   2  519.26  113.15
   6   5   2  373.12   44.25
   6   5   2  448.66   78.61
  -6  -5  -2  513.40   55.34
  -6  -5  -3  361.03   58.81
   6   5   3  351.64   95.20
   6   5   3  226.14   35.18
   6   5   3  305.42   66.80
  -6  -5  -3  378.94   50.37
   6   5   4  311.48   89.64
  -6  -5  -4  225.24   42.57
   6   5   4  208.93   34.37
  -6  -5  -4  112.48   34.14
   6   5   4  112.57   42.44
   6   5   5    3.15    6.10
   6   5   5   -7.91   22.96
  -6  -5  -5   13.50   13.91
   6   5   6  172.25   32.44
   6   5   6  157.91   68.68
  -6  -5  -6  184.25   49.66
  -6  -6  14   -0.71   11.33
   6   6 -14   48.78   30.78
  -6  -6  13   17.38   15.28
   6   6 -13   -1.75   14.82
  -6  -6  12   37.85   17.86
   6   6 -12   63.14   19.05
   6   6 -12   14.09   18.59
  -6  -6  11   26.58   17.31
   6   6 -11   38.13   20.52
   6   6 -11   54.24   32.06
  -6  -6  10   48.47   19.67
   6   6 -10   69.88   28.96
   6   6 -10   29.65   28.79
  -6  -6   9   49.43   18.34
   6   6  -9   55.26   29.34
  -6  -6   8  145.32   30.70
   6   6  -8   79.10   44.53
   6   6  -7  564.84   99.90
   6   6  -7  416.02   54.13
  -6  -6   7  453.26   50.10
   6   6  -7  409.58   41.48
   6   6  -7  437.39   53.13
   6   6  -6  125.76   52.39
   6   6  -6   59.85   22.85
   6   6  -6   64.80   20.91
   6   6  -6   58.49   14.86
  -6  -6   6  112.10   24.14
   6   6  -5  446.31   94.45
   6   6  -5  622.73   66.77
   6   6  -5  466.29   38.82
   6   6  -5  621.33   62.62
   6   6  -4   84.17   23.45
   6   6  -4   40.24   10.56
   6   6  -4   96.33   49.96
   6   6  -3  350.77   28.11
   6   6  -3  442.34   53.01
   6   6  -3  374.11   87.47
   6   6  -2 1390.30   56.12
  -6  -6   2 1262.70   88.74
  -6  -6   1  325.18   45.24
   6   6  -1  354.16   21.66
   6   6  -1  402.71   34.97
   6   6   0  502.01   87.64
   6   6   0  535.95  118.27
  -6  -6   0  464.71   57.73
   6   6   1  382.39   77.07
   6   6   1  627.84  126.31
  -6  -6  -1  564.93   67.01
   6   6   2  694.60  137.68
  -6  -6  -2  541.46   69.13
   6   6   2  549.29   95.34
  -6  -6  -2  620.01   66.25
  -6  -6  -3  421.11   56.81
  -6  -6  -3  415.22   63.59
   6   6   3  318.72   71.00
   6   6   3  396.56  105.72
  -6  -6  -4  133.80   37.39
   6   6   4   93.31   62.62
  -6  -6  -5  182.72   46.13
   6   7 -15   44.83   27.49
  -6  -7  14   -4.63   10.87
   6   7 -14   73.14   40.09
  -6  -7  13   11.04   10.34
   6   7 -13   40.39   34.85
  -6  -7  12  102.20   30.82
   6   7 -12   61.76   34.35
   6   7 -12   53.71   21.05
  -6  -7  11    7.41    7.81
   6   7 -11   46.22   34.94
   6   7 -11   24.89   19.58
  -6  -7  10   25.81   15.25
   6   7 -10    2.68   20.98
   6   7 -10   -4.71   18.81
  -6  -7   9   13.55   11.68
   6   7  -9    8.37   16.80
   6   7  -9   28.46   23.90
  -6  -7   8   30.09   13.80
   6   7  -8  -11.43   23.03
   6   7  -8    9.68   21.24
   6   7  -7  124.70   30.84
   6   7  -7  101.60   46.65
  -6  -7   7  129.47   26.34
   6   7  -7   76.82   40.28
   6   7  -6   11.93   10.83
   6   7  -6   -8.18   21.85
  -6  -7   6   -4.87    8.87
   6   7  -6   39.50   37.50
   6   7  -5    6.12   16.81
   6   7  -5   35.45   34.99
   6   7  -4  118.96   47.63
   6   7  -4   70.72   44.40
   6   7  -3  267.69   66.38
   6   7  -3  316.25   86.45
   6   7  -2  327.29   71.98
  -6  -7   2  277.52   39.56
   6   7  -2  365.03   92.23
   6   7  -1   15.83   28.58
  -6  -7   1   10.19    7.04
   6   7  -1   51.81   47.52
   6   7   0  385.92   82.09
  -6  -7   0  393.41   52.10
   6   7   0  444.00  108.96
   6   7   1  266.62   67.46
  -6  -7  -1  310.71   49.11
   6   7   1  345.91   94.25
  -6  -7  -2  585.59   71.61
   6   7   2  422.38   86.21
  -6  -7  -2  657.40   72.50
   6   7   2  814.23  144.66
  -6  -7  -3  249.17   50.12
   6   7   3  227.74   62.11
   6   7   3  272.94   86.09
   6   8 -15   18.56   28.76
  -6  -8  14  236.86   49.21
   6   8 -14  377.49   83.34
  -6  -8  13  577.24   73.70
   6   8 -13  382.48   83.48
  -6  -8  12   56.88   23.19
   6   8 -12   34.63   29.45
   6   8 -12   41.49   18.73
  -6  -8  11   53.20   20.92
   6   8 -11   73.72   45.60
   6   8 -11   79.91   30.58
  -6  -8  10  -15.58   11.70
   6   8 -10  -22.99   18.63
   6   8 -10   -1.34   21.11
  -6  -8   9  261.31   41.62
   6   8  -9  156.12   52.24
   6   8  -9  271.16   64.29
  -6  -8   8  133.09   28.64
   6   8  -8  108.65   48.77
   6   8  -8  171.24   53.32
   6   8  -7  122.62   29.86
   6   8  -7  107.30   53.17
  -6  -8   7  103.01   24.41
   6   8  -7   65.19   39.49
   6   8  -6  -14.57   20.32
   6   8  -6   24.32   32.11
   6   8  -5    8.62   22.19
   6   8  -5   19.70   27.96
   6   8  -4  110.01   47.59
   6   8  -4  215.16   75.22
   6   8  -3   37.79   24.31
   6   8  -3   41.60   31.78
   6   8  -2   51.26   34.84
   6   8  -2   91.36   54.59
  -6  -8   1  120.82   26.28
   6   8  -1   11.63   15.96
   6   8  -1   51.58   46.85
  -6  -8   0  140.61   31.47
   6   8   0  142.80   60.82
   6   8   0   35.54   30.67
   6   8   1  342.90   93.43
   6   8   1  262.95   70.66
   6   8   2   86.79   41.81
   6   9 -15  277.84   74.31
   6   9 -14  474.12   97.02
  -6  -9  13  287.24   52.15
   6   9 -13  244.63   72.44
  -6  -9  12  260.45   46.50
   6   9 -12  236.93   48.11
   6   9 -12  261.51   72.85
  -6  -9  11  102.42   28.86
   6   9 -11  106.86   37.57
   6   9 -11   81.81   51.87
  -6  -9  10  259.59   43.71
   6   9 -10  148.85   44.27
   6   9 -10  312.45   77.93
  -6  -9   9  197.68   36.72
   6   9  -9  201.37   52.77
   6   9  -9  336.29   83.93
   6   9  -8   82.23   37.69
  -6  -9   8   46.31   16.61
   6   9  -7   50.55   30.58
   6   9  -7   20.69   24.37
  -6  -9   7   44.93   15.27
   6   9  -6   25.52   36.00
   6   9  -6   50.52   37.72
   6   9  -5  148.60   55.90
   6   9  -5  202.76   61.56
   6   9  -4   53.24   45.42
   6   9  -4   29.32   16.64
   6   9  -3   16.73   26.99
   6   9  -3   27.56   25.04
   6   9  -2   61.81   42.95
   6   9  -2   42.81   36.35
   6   9  -1   29.59   34.66
   6   9  -1   26.83   32.48
   6   9   0  173.09   58.01
   6   9   1  -45.23   30.85
   6  10 -13   39.45   36.55
  -6 -10  13   42.20   22.56
   6  10 -12  181.32   62.29
   6  10 -12  216.15   49.52
  -6 -10  12  127.03   34.20
   6  10 -11  398.88   92.30
   6  10 -11  393.87   69.66
  -6 -10  11  332.10   51.70
   6  10 -10  369.69   87.73
   6  10 -10  452.63   80.37
  -6 -10  10  423.98   56.04
   6  10  -9   87.48   43.24
   6  10  -9  213.03   58.05
  -6 -10   9  158.02   32.73
   6  10  -8  142.91   56.02
   6  10  -8   71.76   44.68
   6  10  -7   78.66   40.32
   6  10  -7  109.96   49.95
   6  10  -6  342.18   81.88
   6  10  -6  223.37   71.18
   6  10  -5  141.18   54.37
   6  10  -5  173.19   61.00
   6  10  -4   65.23   36.53
   6  10  -4   51.70   31.60
   6  10  -3   70.96   41.05
   6  10  -2   94.83   48.25
   6  10  -1  144.46   55.15
  -6 -11  13  124.55   33.96
  -6 -11  12   27.09   16.35
   6  11 -12   15.81   11.92
   6  11 -11  244.43   57.09
   6  11 -10  271.89   67.07
   6  11  -9   54.49   30.73
   6  11  -8  252.98   67.02
   6  11  -7  145.03   51.86
   6  12 -11   36.65   19.01
   7 -13   1  405.23   65.01
   7 -13   2  276.99   55.16
   7 -13   3   67.17   28.51
   7 -12   0  175.60   57.94
   7 -12   0  193.43   39.75
   7 -12   1  339.49   77.80
   7 -12   1  315.78   53.38
   7 -12   2  137.91   36.52
   7 -12   3  104.90   34.46
   7 -12   4  359.68   61.23
   7 -12   5  533.32   75.47
   7 -11  -4   22.50   24.21
   7 -11  -4   19.81   18.19
   7 -11  -3  101.06   43.59
   7 -11  -3   55.61   28.93
   7 -11  -2  -25.73   23.77
   7 -11  -2    7.36   16.84
  -7  11   2    7.54    8.91
   7 -11  -1  120.13   31.94
   7 -11  -1   83.84   37.97
   7 -11  -1  117.25   39.94
  -7  11   1   89.12   30.05
   7 -11   0   87.80   26.36
   7 -11   0   64.26   43.02
   7 -11   0  134.52   45.40
  -7  11   0  109.53   33.93
   7 -11   1   89.16   27.34
   7 -11   1  125.41   45.97
   7 -11   1   65.32   33.62
  -7  11  -1   55.44   24.94
   7 -11   2   -0.08   11.94
   7 -11   2    4.86   13.13
  -7  11  -2   27.75   18.31
   7 -11   2   34.31   22.84
   7 -11   3  141.79   36.55
   7 -11   3  153.03   47.01
  -7  11  -3  181.38   41.89
   7 -11   4  258.49   49.47
  -7  11  -4  286.81   46.51
   7 -11   4  253.34   55.50
  -7  11  -4  303.92   53.69
   7 -11   5  231.27   47.55
  -7  11  -5  221.32   42.11
   7 -11   5  191.00   51.42
  -7  11  -5  291.90   52.91
   7 -11   6  149.51   39.98
   7 -11   6  187.69   47.77
  -7  11  -6  208.95   46.54
  -7  11  -6  132.83   34.81
   7 -11   7   62.79   27.10
  -7  11  -7  122.30   35.24
  -7  11  -7   81.50   28.89
   7 -11   8  506.45   74.72
  -7  11  -8  510.87   75.31
   7 -11   9  291.48   57.65
  -7  11  -9  345.95   65.52
   7 -10  -6  150.67   48.86
   7 -10  -6  180.68   46.18
   7 -10  -5   67.53   30.57
   7 -10  -5  105.58   40.16
   7 -10  -5  107.05   36.70
   7 -10  -4   57.23   29.03
   7 -10  -4   77.08   32.77
   7 -10  -4  128.50   37.63
   7 -10  -3   -5.12   20.23
   7 -10  -3    2.80    9.95
   7 -10  -2   11.83    8.85
   7 -10  -2   34.05   24.59
   7 -10  -2   63.61   32.90
   7 -10  -1    4.54    9.38
   7 -10  -1   37.52   27.14
   7 -10  -1   25.82   22.06
  -7  10   1   13.62   14.39
   7 -10   0   66.88   22.81
   7 -10   0   10.72   16.71
   7 -10   0   46.11   28.47
  -7  10   0   58.12   22.85
   7 -10   1  124.66   29.70
   7 -10   1  178.71   53.36
   7 -10   1  162.13   45.12
  -7  10  -1  117.46   33.04
   7 -10   2   57.60   22.68
   7 -10   2   80.70   39.57
   7 -10   2   44.90   22.33
  -7  10  -2   53.78   24.27
  -7  10  -3  177.67   41.31
  -7  10  -3  164.35   35.30
   7 -10   3  105.57   28.72
   7 -10   3  119.30   36.79
   7 -10   3  120.73   43.81
   7 -10   4    7.20    7.50
  -7  10  -4   17.60   12.77
   7 -10   4   21.15   17.70
  -7  10  -4   49.82   23.75
   7 -10   5  192.84   41.63
  -7  10  -5  196.63   41.61
   7 -10   5  144.65   42.52
  -7  10  -5  176.35   40.57
   7 -10   6   25.25   19.53
  -7  10  -6   29.51   21.42
   7 -10   6   13.11   17.90
  -7  10  -6   36.66   18.94
   7 -10   7  262.56   53.68
  -7  10  -7  300.83   56.73
   7 -10   7  389.16   60.85
   7 -10   8  210.24   48.39
  -7  10  -8  185.14   49.91
   7 -10   9   97.97   31.68
  -7  10  -9   78.22   31.72
   7 -10  10  212.71   45.76
   7  -9  -7  200.41   54.80
   7  -9  -7  205.89   44.70
   7  -9  -6  386.00   74.19
   7  -9  -6  294.81   64.59
   7  -9  -6  284.70   52.92
   7  -9  -5  252.41   57.63
   7  -9  -5  283.19   58.46
   7  -9  -5  281.85   53.62
   7  -9  -4   23.71   19.64
   7  -9  -4   90.18   32.17
   7  -9  -4  131.13   38.79
   7  -9  -3   12.16    7.17
   7  -9  -3   -5.92   11.16
   7  -9  -3   22.74   11.40
   7  -9  -2  188.89   31.29
   7  -9  -2  140.50   43.10
   7  -9  -2  202.32   45.86
   7  -9  -1   72.39   19.60
   7  -9  -1   37.03   22.48
   7  -9   0   14.21    9.95
   7  -9   0   -0.39   11.40
   7  -9   0   33.30   21.14
  -7   9   0   18.70   13.92
   7  -9   1   30.37   17.58
   7  -9   1  -14.02   18.73
   7  -9   1    4.98   15.22
  -7   9  -1   14.27   13.10
  -7   9  -2    6.22    7.27
  -7   9  -2   -3.36    7.15
   7  -9   2   17.91   14.45
   7  -9   2   18.99   13.13
   7  -9   2   15.49   13.52
  -7   9  -3   17.69   10.57
  -7   9  -3   42.01   20.77
   7  -9   3   28.79   16.28
   7  -9   3   20.56   27.21
   7  -9   3   37.70   18.40
  -7   9  -4   33.84   18.99
   7  -9   4    2.18    9.49
   7  -9   4   25.13   18.51
   7  -9   4   -1.54   10.04
   7  -9   5   34.07   17.94
  -7   9  -5   29.51   19.08
   7  -9   5   49.47   21.43
   7  -9   6   14.53   12.89
  -7   9  -6   10.87   18.19
   7  -9   6    4.87    8.65
   7  -9   7   35.31   18.92
  -7   9  -7   58.38   27.28
   7  -9   7   47.84   22.46
   7  -9   8   98.11   32.23
  -7   9  -8   56.76   27.44
   7  -9   8   56.19   23.67
   7  -9   9  122.27   36.45
  -7   9  -9   77.18   34.71
   7  -9  10   82.17   27.50
   7  -8  -8   65.36   33.34
   7  -8  -8   54.17   18.87
   7  -8  -7  592.34   87.46
   7  -8  -7  688.23   96.20
   7  -8  -7  575.94   72.01
   7  -8  -6  956.49  110.11
   7  -8  -6 1105.47  117.43
   7  -8  -6  995.48   96.05
   7  -8  -5  290.71   59.46
   7  -8  -5  192.43   42.23
   7  -8  -5  219.35   48.95
   7  -8  -4  347.79   36.42
   7  -8  -4  383.50   68.51
   7  -8  -4  410.28   61.35
   7  -8  -4  442.44   66.57
   7  -8  -3  462.34   65.29
   7  -8  -3  431.15   72.43
   7  -8  -3  453.52   44.34
   7  -8  -2  454.61   64.62
   7  -8  -2  645.02   86.79
   7  -8  -2  590.84   52.99
   7  -8  -1  554.24   70.58
   7  -8  -1  439.94   73.96
   7  -8  -1  467.90   49.39
   7  -8   0   -0.87   11.65
   7  -8   0    3.69   14.86
   7  -8   0    5.79    9.81
  -7   8  -1  127.41   32.11
   7  -8   1  142.43   36.89
   7  -8   1  124.53   39.01
   7  -8   1  150.34   30.52
  -7   8  -2   74.92   24.67
   7  -8   2  118.78   33.25
   7  -8   2   40.09   29.19
   7  -8   2   71.81   22.12
  -7   8  -3   62.37   25.34
   7  -8   3   52.27   23.15
   7  -8   3   87.18   38.99
   7  -8   3   77.09   22.96
  -7   8  -4   12.58   10.90
   7  -8   4   35.15   19.73
   7  -8   4   20.87   25.82
   7  -8   4   37.73   17.84
   7  -8   5    0.78    6.03
  -7   8  -5    8.77   13.90
   7  -8   5   26.81   19.47
   7  -8   6   27.82   16.59
  -7   8  -6   57.29   28.27
   7  -8   6   20.76   16.10
   7  -8   7    7.58   10.55
  -7   8  -7   33.76   27.72
   7  -8   7    3.84   11.44
   7  -8   8   18.82   12.41
  -7   8  -8    0.89   13.49
   7  -8   8   -1.04   16.23
   7  -8   9    7.07   15.10
   7  -8   9   27.99   15.74
  -7   8  -9   10.21   16.88
   7  -7  -9   57.39   30.01
   7  -7  -9   43.28   22.03
   7  -7  -8  339.44   64.32
   7  -7  -8  307.83   64.55
   7  -7  -8  350.56   52.28
   7  -7  -7  492.72   75.86
   7  -7  -7  528.97   79.09
   7  -7  -7  576.78   67.95
   7  -7  -6  173.75   43.42
   7  -7  -6  225.30   49.85
   7  -7  -5  368.23   33.34
   7  -7  -5  329.77   60.52
   7  -7  -5  345.48   52.99
   7  -7  -5  441.74   65.27
   7  -7  -4  355.40   54.01
   7  -7  -4  373.46   63.39
   7  -7  -4  441.54   61.17
   7  -7  -4  367.75   36.06
   7  -7  -3 1243.52  102.68
   7  -7  -3 1208.01  116.17
   7  -7  -3 1412.95  105.20
   7  -7  -3 1241.36   73.88
   7  -7  -2 1380.73  108.10
   7  -7  -2 1339.65  122.67
   7  -7  -2 1354.13   80.48
   7  -7  -1  214.73   42.39
   7  -7  -1  169.11   42.55
   7  -7  -1  265.82   35.44
   7  -7   0  472.14   64.06
   7  -7   0  463.77   71.45
   7  -7   0  448.44   48.46
  -7   7  -1  315.39   47.61
   7  -7   1  301.54   50.79
   7  -7   1  299.17   57.55
   7  -7   1  244.61   36.91
  -7   7  -2  783.66   78.11
   7  -7   2  679.02   75.07
   7  -7   2  802.58   97.16
   7  -7   2  731.04   66.05
  -7   7  -3  161.72   36.24
   7  -7   3  150.65   34.44
   7  -7   3  132.85   40.15
   7  -7   3  154.81   31.35
  -7   7  -4   53.73   23.67
   7  -7   4   33.16   18.40
   7  -7   4   14.50   18.27
   7  -7   4   30.32   14.36
   7  -7   5   84.62   27.39
  -7   7  -5   80.10   29.41
   7  -7   5   95.08   25.57
   7  -7   6   44.78   18.63
  -7   7  -6   64.41   27.90
   7  -7   6   27.36   15.96
   7  -7   7   33.81   16.49
  -7   7  -7    3.23   16.77
   7  -7   7   13.73   10.97
   7  -7   8   67.96   23.23
  -7   7  -8   38.44   22.81
   7  -7   8  102.22   28.64
   7  -7   9   18.36   15.98
   7  -7   9   10.83   10.41
   7  -6 -10  -28.28   20.19
   7  -6  -9   25.74   24.77
   7  -6  -9   37.32   17.09
   7  -6  -9    3.51    8.56
   7  -6  -8  169.44   42.72
   7  -6  -8  173.25   36.15
   7  -6  -8  166.91   44.66
   7  -6  -7  246.59   51.40
   7  -6  -7  270.43   53.95
   7  -6  -7  281.02   45.49
   7  -6  -6   11.25    5.14
   7  -6  -6  -16.24   14.95
   7  -6  -6   -6.00   10.22
   7  -6  -6   -4.44   11.85
   7  -6  -5  289.57   28.86
   7  -6  -5  234.00   48.34
   7  -6  -5  225.13   42.94
   7  -6  -5  241.02   42.79
  -7   6   4  692.89   56.69
   7  -6  -4  691.65   49.81
   7  -6  -4  709.90   71.64
   7  -6  -4  757.42   86.14
   7  -6  -4  677.99   71.92
  -7   6   3  772.28   64.19
   7  -6  -3 1004.56   63.91
   7  -6  -3  952.81   97.14
   7  -6  -3  960.35   79.19
   7  -6  -3 1135.93   92.57
  -7   6   2  349.21   43.25
   7  -6  -2  325.18   36.77
   7  -6  -2  337.97   43.43
   7  -6  -2  289.22   53.42
   7  -6  -2  363.01   51.82
   7  -6  -1  180.46   28.01
   7  -6  -1  163.01   40.10
  -7   6   1  158.90   30.21
   7  -6  -1  172.52   37.62
  -7   6   0 1572.65  107.73
   7  -6   0 1436.06  106.89
   7  -6   0 1398.02  121.61
   7  -6   0 1486.91   88.89
  -7   6  -1 1689.05  115.86
   7  -6   1 1773.61  118.57
   7  -6   1 1808.78  139.88
   7  -6   1 1714.37   99.39
  -7   6  -2  862.79   84.07
   7  -6   2  835.08   80.61
   7  -6   2  955.47  100.78
   7  -6   2  932.54   73.29
  -7   6  -3  146.03   35.97
   7  -6   3  149.16   33.91
   7  -6   3  142.29   40.20
   7  -6   3  201.29   33.98
  -7   6  -4  349.49   58.09
   7  -6   4  349.48   46.71
   7  -6   4  340.71   49.93
   7  -6   4  306.32   60.29
   7  -6   5  335.43   46.89
  -7   6  -5  344.29   60.05
   7  -6   5  376.36   52.06
   7  -6   5  380.79   43.43
   7  -6   6  216.55   38.85
  -7   6  -6  347.77   64.13
   7  -6   6  263.34   43.18
   7  -6   7    9.29    9.53
  -7   6  -7   14.09   17.40
   7  -6   7   28.53   13.52
   7  -6   8  123.69   30.94
   7  -6   8   86.54   25.27
   7  -6   9   12.06   14.22
   7  -6   9   -2.33   11.91
   7  -5 -11   -4.72   16.57
   7  -5 -10    6.29   14.81
   7  -5 -10    7.68    7.82
   7  -5 -10   21.41   22.58
   7  -5  -9   34.78   22.71
   7  -5  -9   25.43   16.79
   7  -5  -9   48.23   27.35
   7  -5  -8   20.99   19.30
   7  -5  -8   13.78   15.16
   7  -5  -8   35.81   16.87
   7  -5  -7   40.44    7.51
   7  -5  -7   18.35   15.27
   7  -5  -7   37.83   20.31
   7  -5  -7   77.33   22.43
   7  -5  -6   19.64    7.36
   7  -5  -6    4.03   10.75
   7  -5  -6    1.38    8.58
   7  -5  -6   -3.06   12.37
   7  -5  -5   61.32   13.63
   7  -5  -5   21.20   16.74
   7  -5  -5   43.34   24.66
   7  -5  -5   69.70   23.06
   7  -5  -4  290.20   42.31
   7  -5  -4  236.84   45.88
  -7   5   4  227.69   31.54
   7  -5  -4  312.24   32.18
   7  -5  -4  244.26   42.55
  -7   5   3  282.07   36.73
   7  -5  -3  280.50   32.26
   7  -5  -3  265.17   48.35
   7  -5  -3  274.51   38.02
   7  -5  -3  222.06   38.76
   7  -5  -2   25.72   11.53
   7  -5  -2   11.83    8.51
   7  -5  -2   20.57   16.51
  -7   5   2    0.79    6.52
   7  -5  -2   20.17   17.04
  -7   5   1 1606.42  107.61
   7  -5  -1 1505.92  105.24
   7  -5  -1 1344.22  114.75
   7  -5  -1 1638.31   83.62
  -7   5   1 1461.22   93.84
   7  -5  -1 1470.78   84.27
  -7   5   0  804.19   76.24
   7  -5   0  748.11   72.89
   7  -5   0  753.46   84.51
   7  -5   0  751.11   60.27
  -7   5  -1  284.01   45.94
   7  -5   1  275.28   43.62
   7  -5   1  323.73   54.75
   7  -5   1  233.12   33.81
  -7   5  -2  561.99   68.26
   7  -5   2  578.31   63.16
   7  -5   2  657.91   79.97
   7  -5   2  644.74   58.95
  -7   5  -3  440.65   63.71
   7  -5   3  515.72   53.62
   7  -5   3  488.05   57.36
   7  -5   3  393.86   62.89
  -7   5  -4  985.70   99.94
   7  -5   4 1028.08   80.30
   7  -5   4 1065.85   60.99
   7  -5   4 1018.97   84.81
   7  -5   4 1063.77  107.70
   7  -5   5 1321.71   93.91
   7  -5   5 1247.20   69.56
   7  -5   5 1307.92   96.03
  -7   5  -5 1217.04  115.98
   7  -5   6  144.16   30.90
  -7   5  -6  201.96   50.65
   7  -5   6  159.69   32.36
   7  -5   7  194.20   36.44
  -7   5  -7  236.43   55.25
   7  -5   7  202.18   38.12
   7  -5   8  279.30   43.45
   7  -5   8  301.28   47.34
   7  -5   9  260.50   45.27
   7  -4 -12   94.21   35.59
   7  -4 -11   -4.86   12.48
   7  -4 -11   -5.57   11.51
   7  -4 -10   94.42   35.45
   7  -4 -10   51.21   17.12
   7  -4 -10   49.55   22.34
   7  -4  -9   86.15   28.01
   7  -4  -9  126.74   28.36
   7  -4  -9  165.54   40.80
   7  -4  -8   13.71   15.16
   7  -4  -8   -1.08   11.55
   7  -4  -8    2.33    8.17
   7  -4  -7  124.37   25.32
   7  -4  -7  103.37   31.13
   7  -4  -7  103.67   13.73
   7  -4  -7  103.38   31.03
   7  -4  -7  128.85   29.52
   7  -4  -6   71.37   18.56
   7  -4  -6  112.46   16.25
   7  -4  -6   82.32   24.92
   7  -4  -6  106.88   30.15
   7  -4  -6   60.31   21.50
   7  -4  -5   80.10   19.31
   7  -4  -5   73.34   24.09
   7  -4  -5   62.10   21.99
   7  -4  -5   77.30   15.02
  -7   4   5   69.86   16.26
   7  -4  -5   75.11   24.25
   7  -4  -4    4.72   10.91
   7  -4  -4   -3.43    8.08
   7  -4  -4   29.06   14.25
   7  -4  -4   30.21   10.59
  -7   4   4   16.31    9.01
   7  -4  -4   29.99   17.16
   7  -4  -3    9.39    6.20
   7  -4  -3   13.64   11.76
   7  -4  -3   -2.01    7.08
   7  -4  -3   11.06    7.19
  -7   4   3   10.33    6.46
   7  -4  -3    7.61    7.03
   7  -4  -2   47.56   13.40
   7  -4  -2   34.65   15.91
   7  -4  -2   52.39   13.57
  -7   4   2   34.90   12.73
   7  -4  -2   47.55   20.46
  -7   4   1   79.34   24.88
   7  -4  -1   78.83   15.16
   7  -4  -1   81.45   19.96
   7  -4  -1   80.02   25.88
  -7   4   1   45.83   15.53
   7  -4  -1   84.02   28.49
  -7   4   0  919.77   82.97
   7  -4   0 1006.09   80.94
   7  -4   0  937.06   90.45
   7  -4   0  834.46   43.42
  -7   4   0  886.04   71.54
   7  -4   0  926.15   66.60
  -7   4  -1  198.96   39.76
   7  -4   1  220.47   32.85
   7  -4   1  206.56   36.71
   7  -4   1  157.48   38.23
   7  -4   2  259.24   17.21
   7  -4   2  272.19   37.67
  -7   4  -2  346.77   54.21
   7  -4   2  246.61   40.31
   7  -4   2  242.35   46.54
   7  -4   3  597.86   58.33
  -7   4  -3  586.63   74.14
   7  -4   3  702.49   67.69
   7  -4   3  461.15   66.89
   7  -4   3  711.14   31.93
   7  -4   4  740.83   67.21
  -7   4  -4  816.28   91.76
   7  -4   4  742.34   69.98
   7  -4   4  765.30   87.91
   7  -4   4  847.74   41.75
   7  -4   5  330.94   45.45
  -7   4  -5  435.07   69.79
   7  -4   5  363.26   47.97
   7  -4   5  394.47   31.73
  -7   4  -6  216.47   51.48
   7  -4   6  283.94   43.18
   7  -4   6  284.09   42.32
   7  -4   7  354.96   49.92
   7  -4   7  462.78   53.97
   7  -4   8  383.55   49.52
   7  -4   8  391.24   54.20
   7  -4   9  534.18   64.15
   7  -3 -12   48.31   26.45
   7  -3 -12   78.35   35.36
   7  -3 -11  409.50   68.71
   7  -3 -11  351.77   43.49
   7  -3 -11  431.67   77.51
   7  -3 -10  414.31   65.32
   7  -3 -10  382.73   46.79
   7  -3 -10  323.48   64.01
   7  -3  -9  207.06   45.34
   7  -3  -9  253.86   38.12
   7  -3  -9  226.38   49.74
   7  -3  -8   16.27   10.25
   7  -3  -8    8.18    9.29
   7  -3  -8    9.07    7.39
   7  -3  -8    7.85   11.86
   7  -3  -7   51.35   18.65
   7  -3  -7   42.62   13.88
   7  -3  -7   99.70   31.71
   7  -3  -7   46.14   10.06
  -7   3   7   63.77   13.41
   7  -3  -7   10.87   10.51
   7  -3  -6  182.05   28.01
   7  -3  -6  218.08   23.74
   7  -3  -6  188.53   34.06
   7  -3  -6  181.47   36.24
   7  -3  -6  183.58   37.45
   7  -3  -5   36.20   13.78
   7  -3  -5   32.30   12.28
   7  -3  -5   20.75   12.59
   7  -3  -5   32.82   10.12
  -7   3   5   18.36    8.22
   7  -3  -5   13.72   13.28
   7  -3  -4    7.81    7.17
   7  -3  -4    1.37   10.61
   7  -3  -4    3.27    5.33
  -7   3   4    6.18    6.03
   7  -3  -4   19.20   15.62
   7  -3  -3  133.93   22.79
   7  -3  -3  120.33   27.02
   7  -3  -3  159.71   23.59
  -7   3   3  111.51   22.09
   7  -3  -3  154.58   34.54
  -7   3   2  183.19   34.94
   7  -3  -2  139.80   19.66
   7  -3  -2  155.23   31.37
   7  -3  -2  149.30   24.03
  -7   3   2  130.47   24.30
   7  -3  -2  166.88   35.23
   7  -3  -1  340.85   23.18
  -7   3   1  311.10   39.55
   7  -3  -1  416.38   41.60
  -7   3   1  344.29   48.90
   7  -3  -1  401.17   55.67
   7  -3  -1  365.03   47.63
   7  -3   0   11.53   10.00
  -7   3   0   21.87   16.44
   7  -3   0    1.61    6.40
  -7   3   0    4.69    5.77
   7  -3   0    1.52    7.31
   7  -3   1    9.07    9.95
   7  -3   1   -1.23    7.37
  -7   3  -1    3.44   11.12
   7  -3   1   -1.61    6.98
   7  -3   2   20.26   11.97
   7  -3   2   14.83   11.78
  -7   3  -2   27.20   15.44
  -7   3  -2   20.00   11.56
   7  -3   2    3.98   11.81
   7  -3   3  530.15   54.57
   7  -3   3  431.67   51.48
  -7   3  -3  496.41   69.50
   7  -3   3  462.70   63.10
  -7   3  -3  530.79   56.11
   7  -3   4  106.60   24.94
   7  -3   4   99.05   23.71
  -7   3  -4  108.54   34.56
  -7   3  -4  131.03   28.30
   7  -3   4  127.89   33.75
   7  -3   5  163.61   30.95
   7  -3   5  113.16   25.89
  -7   3  -5  201.20   47.64
  -7   3  -5  144.42   29.18
   7  -3   6  517.90   58.03
   7  -3   6  591.19   59.69
  -7   3  -6  501.12   78.42
  -7   3  -6  529.69   57.57
   7  -3   7  106.04   24.62
   7  -3   7  162.39   33.50
   7  -3   8  574.44   64.32
   7  -3   8  513.37   54.37
   7  -3   9  135.06   31.77
   7  -2 -12  339.29   64.57
   7  -2 -11  692.84   60.80
   7  -2 -11  772.99   91.43
   7  -2 -11  700.79   96.74
   7  -2 -10  473.25   50.90
   7  -2 -10  474.52   67.94
   7  -2 -10  490.72   76.71
   7  -2  -9  287.98   34.59
   7  -2  -9  297.78   56.03
   7  -2  -9  307.70   52.28
   7  -2  -9  290.38   40.53
   7  -2  -8  160.06   31.49
   7  -2  -8  163.67   25.04
   7  -2  -8  161.01   38.74
  -7   2   8  159.12   20.83
   7  -2  -8  260.87   44.36
   7  -2  -7  195.67   26.77
   7  -2  -7  225.13   23.24
   7  -2  -7  206.50   40.29
   7  -2  -7  182.17   35.67
   7  -2  -7  206.03   34.13
   7  -2  -6 1008.00   55.66
   7  -2  -6  961.71   82.29
  -7   2   6 1056.44   63.40
   7  -2  -6  980.34   83.47
   7  -2  -6 1133.88   82.85
   7  -2  -5  171.87   22.45
  -7   2   5  161.59   24.78
   7  -2  -5  222.25   36.85
   7  -2  -5  147.21   28.23
   7  -2  -5  155.73   32.48
   7  -2  -4   29.39    9.99
  -7   2   4   32.05   12.46
   7  -2  -4   33.22   14.62
   7  -2  -4   18.52   11.75
   7  -2  -4    4.08    9.06
   7  -2  -3  145.46   22.74
  -7   2   3  188.54   28.43
   7  -2  -3  130.46   29.84
   7  -2  -3  187.36   33.92
   7  -2  -2  359.05   46.19
  -7   2   2  302.91   46.49
  -7   2   2  402.21   43.05
   7  -2  -2  340.56   36.45
   7  -2  -2  361.43   49.69
   7  -2  -2  336.06   49.11
  -7   2   1   99.21   22.54
   7  -2  -1  135.08   23.66
   7  -2  -1  103.22   24.78
  -7   2   1  125.60   29.09
   7  -2  -1  143.37   31.80
   7  -2   0   75.35   18.61
   7  -2   0   55.74   18.77
  -7   2   0   46.59   21.68
   7  -2   0  109.57   28.59
   7  -2   1   35.00   13.03
   7  -2   1   37.57   16.27
  -7   2  -1   49.79   22.51
   7  -2   1   34.64   16.21
   7  -2   2   14.74   10.71
   7  -2   2   -2.65    7.50
  -7   2  -2   -5.11   13.79
   7  -2   2   17.04   12.78
   7  -2   3  423.31   48.13
   7  -2   3  437.27   51.11
  -7   2  -3  414.61   63.40
   7  -2   3  376.12   53.51
   7  -2   4  157.82   30.22
   7  -2   4  218.68   34.84
  -7   2  -4  177.67   42.55
  -7   2  -4  146.55   28.16
   7  -2   4  139.86   35.82
   7  -2   5   40.47   17.57
   7  -2   5   46.09   16.91
  -7   2  -5   31.46   24.97
  -7   2  -5   49.32   19.01
  -7   2  -6   76.45   21.52
   7  -2   6   64.57   20.54
   7  -2   6   72.00   19.59
   7  -2   7  569.00   62.58
   7  -2   7  539.69   55.68
   7  -2   8  182.07   35.43
   7  -2   9   36.21   22.16
   7  -2   9   76.41   47.25
   7  -1 -12  475.00   48.67
  -7   1  12  544.08   74.46
   7  -1 -11  401.22   45.38
  -7   1  11  308.54   55.09
   7  -1 -10  380.07   44.88
  -7   1  10  342.83   54.66
   7  -1  -9    5.34    9.05
   7  -1  -9    2.79    4.67
  -7   1   9    3.86    4.13
   7  -1  -8  820.75   69.86
   7  -1  -8  769.72   52.30
   7  -1  -7 1695.30   74.12
   7  -1  -7 1506.88  105.68
   7  -1  -7 1608.25  101.12
  -7   1   7 1668.66   80.86
   7  -1  -6  289.15   28.73
   7  -1  -6  227.85   38.78
   7  -1  -6  295.76   41.18
  -7   1   6  280.67   31.38
  -7   1   5  163.09   24.58
   7  -1  -5  149.07   21.65
   7  -1  -5  228.48   35.83
   7  -1  -5   93.91   25.35
  -7   1   4  368.86   39.09
   7  -1  -4  408.67   48.46
   7  -1  -4  504.05   41.43
   7  -1  -4  387.71   49.82
   7  -1  -3  889.53   59.07
   7  -1  -3  857.71   72.58
  -7   1   3  849.92   62.19
   7  -1  -3  860.79   72.38
   7  -1  -3  928.08   77.88
  -7   1   2  409.57   53.04
   7  -1  -2  393.27   39.90
  -7   1   2  422.36   44.84
   7  -1  -2  467.03   55.21
   7  -1  -2  453.95   52.13
   7  -1  -2  495.37   53.27
  -7   1   1   11.45    9.10
   7  -1  -1   17.13   10.20
   7  -1  -1   14.63   12.37
  -7   1   1   15.31    9.15
   7  -1  -1    6.87   10.34
   7  -1  -1   -8.44   13.12
   7  -1   0   29.34   13.38
   7  -1   0   15.99   11.47
  -7   1   0   -3.09    7.74
   7  -1   0   15.24   12.71
   7  -1   1   94.91   21.46
   7  -1   1   73.76   20.99
  -7   1  -1  132.21   34.35
   7  -1   1   90.35   25.43
  -7   1  -2  825.76   87.33
   7  -1   2  913.17   69.69
   7  -1   2  890.31   72.07
   7  -1   2  817.12   74.30
   7  -1   3    3.22    6.93
   7  -1   3   17.83   15.87
  -7   1  -3    3.80   13.26
   7  -1   3    6.97   12.80
   7  -1   4   57.69   17.65
  -7   1  -4   48.76   26.00
   7  -1   4   76.53   21.20
   7  -1   5  383.14   45.93
   7  -1   5  349.36   45.65
  -7   1  -5  308.38   59.76
   7  -1   6   89.96   22.59
   7  -1   6  138.31   29.77
   7  -1   7   11.63    7.89
   7  -1   7   10.07    9.40
   7  -1   8   42.46   17.74
   7  -1   8   41.45   44.06
   7  -1   9   15.42   14.68
   7  -1   9   69.53   42.09
  -7   0  13   82.06   30.29
   7   0 -12  129.03   24.94
  -7   0  12   94.68   31.33
   7   0 -11  163.34   29.27
  -7   0  11  118.88   34.53
   7   0 -10    5.38    8.50
  -7   0  10   -9.32   11.33
  -7   0   9  911.92   86.58
  -7   0   9  974.38   57.64
   7   0  -9  942.70   73.51
  -7   0   8  613.80   46.58
   7   0  -8  539.64   55.47
  -7   0   7  444.73   40.29
   7   0  -7  489.09   53.06
  -7   0   6  290.75   33.04
   7   0  -6  295.96   40.86
   7   0  -6  279.12   29.81
  -7   0   5   84.34   18.38
   7   0  -5   55.50   13.65
   7   0  -5   88.56   23.67
   7   0  -5   59.68   19.34
   7   0  -4  804.84   55.43
   7   0  -4  769.04   68.56
  -7   0   4  922.24   63.68
   7   0  -4  915.46   71.41
   7   0  -4  839.46   70.16
   7   0  -3 1371.36   75.83
   7   0  -3 1174.65   86.46
  -7   0   3 1239.39   77.88
   7   0  -3 1357.54   87.93
   7   0  -3 1243.49   87.15
   7   0  -2  415.31   48.19
  -7   0   2  329.64   47.40
   7   0  -2  313.01   35.59
  -7   0   2  280.87   36.48
   7   0  -2  312.03   41.03
   7   0  -2  343.22   46.65
  -7   0   1    6.59    7.78
   7   0  -1    4.25    6.75
   7   0  -1   -1.31   10.16
   7   0  -1    0.79    4.96
   7   0  -1    5.68    8.78
  -7   0   0  685.83   73.97
   7   0   0  738.18   64.46
   7   0   0  641.53   63.09
   7   0   0  625.91   54.46
  -7   0  -1  540.36   68.72
   7   0   1  562.70   56.26
   7   0   1  495.71   54.37
   7   0   1  560.80   53.00
  -7   0  -2  260.09   48.50
   7   0   2  305.37   39.73
   7   0   2  271.10   38.91
   7   0   2  222.00   36.55
   7   0   3   -0.80    6.49
  -7   0  -3   -7.23    9.22
   7   0   4   23.53   11.11
  -7   0  -4   -5.21   14.19
   7   0   4   13.02    6.12
   7   0   5  153.01   30.18
   7   0   5  148.30   28.10
  -7   0  -5  204.25   48.83
   7   0   6  161.61   29.03
   7   0   6  219.96   71.31
   7   0   6  194.47   35.92
   7   0   7  201.82   71.69
   7   0   7  122.49   28.04
   7   0   8   37.89   37.13
   7   0   8   23.69   12.41
   7   0   9   94.59   58.22
  -7  -1  13  173.32   43.88
  -7  -1  12   65.44   27.85
   7   1 -12   92.73   22.41
   7   1 -11  153.74   36.37
   7   1 -11  136.69   27.05
  -7  -1  11  119.02   33.53
   7   1 -10   18.23   14.72
  -7  -1  10   15.88    6.61
   7   1 -10   25.24   13.33
  -7  -1  10   21.07   17.13
  -7  -1   9  279.64   31.71
  -7  -1   9  316.86   47.89
  -7  -1   9  298.31   47.92
   7   1  -9  382.91   45.88
  -7  -1   8  213.57   36.29
  -7  -1   8  204.84   38.51
   7   1  -8  159.58   29.76
  -7  -1   8  165.85   24.52
  -7  -1   7  164.38   24.76
   7   1  -7  138.24   28.01
  -7  -1   7  183.21   30.60
   7   1  -6  147.53   22.53
  -7  -1   6  159.01   25.11
  -7  -1   6  148.18   24.98
   7   1  -6  146.40   28.27
  -7  -1   5  681.19   49.15
  -7  -1   5  754.96   57.33
   7   1  -5  750.27   52.77
   7   1  -5  660.88   58.40
   7   1  -5  702.52   63.39
  -7  -1   4 1174.79   55.61
   7   1  -4 1142.03   82.29
   7   1  -4 1017.89   64.68
  -7  -1   4 1148.44   73.83
   7   1  -4 1065.88   74.73
   7   1  -4 1150.54   82.28
  -7  -1   3  275.89   42.94
   7   1  -3  228.80   30.20
  -7  -1   3  291.18   36.89
   7   1  -3  207.90   34.75
   7   1  -3  202.75   32.43
   7   1  -3  265.84   38.92
  -7  -1   2   25.71   14.91
   7   1  -2   38.11   17.33
   7   1  -2   19.61   10.33
   7   1  -2    9.74    8.83
   7   1  -2    3.28    6.46
   7   1  -1  560.63   56.16
  -7  -1   1  544.09   64.40
   7   1  -1  565.28   53.18
   7   1  -1  619.92   60.80
   7   1  -1  554.68   50.26
   7   1   0  445.94   49.90
  -7  -1   0  446.69   60.62
   7   1   0  424.32   45.40
   7   1   0  428.40   45.92
   7   1   0  511.82   53.03
  -7  -1  -1  213.58   43.14
   7   1   1  274.70   36.87
   7   1   1  211.69   33.67
   7   1   2   99.59   23.12
   7   1   2   65.87   18.89
  -7  -1  -2   85.18   30.06
   7   1   3  160.76   30.02
   7   1   3  130.10   26.93
  -7  -1  -3  148.62   39.13
  -7  -1  -4  383.64   64.26
   7   1   4  419.24   49.29
   7   1   4  261.14   69.48
   7   1   4  367.94   45.29
  -7  -1  -5  458.78   73.76
   7   1   5  378.84   45.56
   7   1   5  433.19   51.56
   7   1   5  280.71   83.96
   7   1   6   64.11   21.85
  -7  -1  -6   49.37   27.08
   7   1   6   56.00   18.57
   7   1   6   59.54   43.60
   7   1   7   -6.19    7.96
   7   1   7  121.91   55.18
   7   1   8   52.46   19.50
   7   1   8  129.78   67.09
  -7  -2  13   51.27   25.52
   7   2 -13   79.26   21.17
  -7  -2  12  113.31   32.68
   7   2 -12  110.13   25.00
   7   2 -11   21.09   15.78
  -7  -2  11   -3.10    8.87
   7   2 -10  337.46   59.44
  -7  -2  10  409.62   38.97
  -7  -2  10  417.50   59.74
   7   2 -10  345.22   44.13
   7   2  -9  367.95   63.51
  -7  -2   9  332.51   49.07
  -7  -2   9  374.06   38.16
  -7  -2   9  330.57   50.56
   7   2  -9  231.63   35.93
   7   2  -8  305.99   60.19
  -7  -2   8  194.38   35.11
  -7  -2   8  200.73   38.65
   7   2  -8  190.44   33.58
  -7  -2   8  281.50   33.35
   7   2  -7  134.51   28.34
  -7  -2   7  123.66   26.99
  -7  -2   7  121.82   22.58
  -7  -2   6  264.41   33.45
  -7  -2   6  244.13   33.19
   7   2  -6  242.47   36.97
  -7  -2   5  318.86   33.91
  -7  -2   5  404.97   42.63
   7   2  -5  348.35   40.23
   7   2  -5  386.96   47.63
   7   2  -5  362.11   37.06
  -7  -2   4  312.27   29.04
   7   2  -4  385.96   39.25
   7   2  -4  305.00   37.18
   7   2  -4  358.44   44.76
   7   2  -3  126.74   27.28
  -7  -2   3   96.42   12.71
  -7  -2   3  121.10   29.11
   7   2  -3  138.55   24.02
   7   2  -3  100.57   21.44
   7   2  -3  124.69   26.70
  -7  -2   2   95.67   27.89
   7   2  -2  114.92   25.77
   7   2  -2  101.14   20.48
   7   2  -2  119.49   23.04
   7   2  -2  135.18   27.77
   7   2  -1  477.07   52.07
  -7  -2   1  466.45   58.64
   7   2  -1  364.89   40.91
   7   2  -1  448.06   49.06
   7   2  -1  433.82   44.63
  -7  -2   0  626.86   72.63
   7   2   0  690.89   58.63
   7   2   0  668.58   55.40
   7   2   0  640.30   60.49
   7   2   1  146.06   53.10
  -7  -2  -1   54.74   21.71
   7   2   1  146.17   26.94
   7   2   1  143.95   28.50
   7   2   1  105.56   22.19
   7   2   2    2.55   25.15
  -7  -2  -2   27.57   20.40
   7   2   2   38.52   15.36
   7   2   2   17.83    9.87
   7   2   2   32.53   13.44
   7   2   3  208.79   34.15
  -7  -2  -3  252.21   50.56
   7   2   3  172.49   64.50
   7   2   3  224.51   34.98
   7   2   4  200.82   34.74
  -7  -2  -4  284.80   55.34
   7   2   4  230.79   72.07
   7   2   4  216.63   35.48
   7   2   5   80.47   23.11
  -7  -2  -5   80.24   33.59
   7   2   5   52.84   42.87
   7   2   5   78.47   20.54
   7   2   6   35.10   16.32
  -7  -2  -6   34.59   23.32
   7   2   6   25.55   41.53
   7   2   7   38.67   15.89
   7   2   7  -12.26   26.38
  -7  -3  13   90.32   33.81
   7   3 -13   65.59   18.90
  -7  -3  12  163.42   40.12
   7   3 -12   90.56   24.20
  -7  -3  11  144.13   36.49
   7   3 -11  129.30   27.85
   7   3 -11  187.87   47.32
  -7  -3  10  126.45   33.70
   7   3 -10  147.94   30.16
   7   3 -10   63.80   32.23
  -7  -3   9  639.76   69.91
   7   3  -9  585.74   59.33
  -7  -3   9  535.73   64.15
   7   3  -9  589.41   85.73
  -7  -3   8   86.68   25.33
  -7  -3   8   57.00   20.23
   7   3  -8   86.36   34.64
   7   3  -8   97.75   24.03
  -7  -3   7   88.76   22.51
   7   3  -7   54.56   32.82
   7   3  -7  101.33   24.47
  -7  -3   6  567.42   54.20
   7   3  -6  557.65   88.74
   7   3  -6  560.73   50.60
   7   3  -6  547.99   57.01
  -7  -3   5  618.27   52.79
   7   3  -5  646.23   96.08
   7   3  -5  584.68   49.56
   7   3  -5  573.86   50.42
   7   3  -5  531.09   56.30
   7   3  -4  235.99   31.34
   7   3  -4  282.32   66.68
  -7  -3   4  260.75   30.93
   7   3  -4  223.90   30.68
   7   3  -4  280.45   41.10
  -7  -3   3   73.07   21.39
   7   3  -3   19.96   14.29
  -7  -3   3   77.57   15.89
   7   3  -3   66.59   17.69
   7   3  -3   78.75   18.21
   7   3  -3   74.73   21.39
   7   3  -2  321.68   38.29
   7   3  -2  301.79   73.25
  -7  -3   2  207.37   38.22
   7   3  -2  247.88   38.27
   7   3  -2  286.94   33.74
   7   3  -2  288.95   38.77
   7   3  -1  407.08   48.77
  -7  -3   1  470.76   59.64
   7   3  -1  461.48   43.24
   7   3  -1  499.48   49.41
   7   3  -1  511.19   49.62
   7   3  -1  451.33   88.40
   7   3   0  410.97   49.07
  -7  -3   0  338.56   52.58
   7   3   0  376.91   43.92
   7   3   0  452.43   90.54
   7   3   0  395.88   40.35
  -7  -3   0  393.64   29.36
   7   3   1   27.27   15.69
  -7  -3  -1   36.14   19.28
   7   3   1   36.99   33.02
  -7  -3  -1   17.89    7.58
   7   3   1    7.54    6.82
   7   3   1    4.25    6.37
  -7  -3  -2   46.12   17.92
   7   3   2   36.59   33.28
  -7  -3  -2   38.31   13.77
   7   3   2   47.06   16.93
   7   3   2   30.70   10.44
   7   3   2   45.72   16.68
   7   3   3  194.95   34.38
  -7  -3  -3  244.16   50.04
   7   3   3  276.41   39.95
   7   3   3  233.19   75.75
   7   3   4  226.73   36.92
  -7  -3  -4  193.04   47.38
   7   3   4  226.98   37.22
   7   3   4  355.14   98.07
   7   3   5   -6.49   32.16
  -7  -3  -5    9.82    8.82
   7   3   5   25.25   18.06
   7   3   6   64.82   45.26
   7   3   6   37.77   19.28
  -7  -3  -6   92.26   36.52
   7   3   7   36.94   17.28
   7   4 -14    8.84   27.44
  -7  -4  13   38.60   23.58
  -7  -4  12   37.46   19.97
   7   4 -12   27.58   17.12
  -7  -4  11  306.61   52.05
   7   4 -11  244.23   53.01
   7   4 -11  235.77   38.93
   7   4 -10  580.76   92.42
  -7  -4  10  602.00   71.03
   7   4 -10  519.98   57.58
  -7  -4   9   12.13   10.91
   7   4  -9   -0.54    6.64
  -7  -4   9    4.62    9.91
   7   4  -9   22.61   23.08
  -7  -4   8  155.62   34.76
   7   4  -8   91.68   24.30
  -7  -4   8  125.82   30.83
   7   4  -8  134.78   43.48
   7   4  -7  390.36   77.79
   7   4  -7  446.01   52.37
  -7  -4   7  415.10   53.01
   7   4  -6  510.68   93.40
   7   4  -6  682.58   55.60
   7   4  -6  785.87   69.47
  -7  -4   6  754.31   67.81
   7   4  -5  519.43   91.80
  -7  -4   5  428.49   47.61
   7   4  -5  488.22   44.83
   7   4  -5  433.36   51.84
   7   4  -4   -3.89   11.22
   7   4  -4   -5.53    7.10
  -7  -4   3  920.25   80.45
   7   4  -3  926.23  127.57
   7   4  -3  810.25   56.25
   7   4  -3  985.91   78.88
   7   4  -3  920.41   67.09
   7   4  -2  808.34   71.13
  -7  -4   2  741.57   73.51
   7   4  -2  674.52   49.84
   7   4  -2  850.92   66.38
   7   4  -2  832.62   64.89
   7   4  -2  781.40  121.47
  -7  -4   1  634.89   69.84
   7   4  -1  570.30   54.10
   7   4  -1  442.04   94.09
   7   4  -1  458.32   39.34
   7   4  -1  546.68   58.11
   7   4   0   19.87   12.26
  -7  -4   0    8.39   12.52
   7   4   0   26.33   26.29
  -7  -4   0    8.92    7.04
   7   4   0   24.38   12.25
   7   4   0   10.66    6.00
   7   4   0   -0.15    4.14
   7   4   1   85.43   49.36
  -7  -4  -1   31.47   11.75
   7   4   1   72.53   20.02
  -7  -4  -1   21.86   14.57
   7   4   1   47.67   19.70
   7   4   2  477.68  108.29
   7   4   2  561.62   56.81
   7   4   2  485.07   55.28
  -7  -4  -2  373.98   60.99
   7   4   3  452.81   52.40
  -7  -4  -3  481.00   72.33
   7   4   3  525.47   58.12
   7   4   4   23.47   19.33
   7   4   4  -19.01   31.86
  -7  -4  -4   26.49   18.98
   7   4   4   53.92   34.75
  -7  -4  -5    1.74   10.81
   7   4   5    9.21   11.60
   7   4   5    5.55   39.58
   7   4   6   24.68   12.73
   7   5 -14   67.71   34.81
  -7  -5  13    6.52   11.00
   7   5 -13   -0.16   12.06
  -7  -5  12   34.97   18.44
  -7  -5  11  116.28   32.64
   7   5 -11  129.08   30.71
   7   5 -11  175.72   46.67
   7   5 -10   70.40   22.65
  -7  -5  10   52.28   21.98
   7   5 -10   42.73   20.86
   7   5  -9   17.02   12.40
   7   5  -9    7.36   16.73
  -7  -5   9    6.00    8.11
  -7  -5   8  245.23   45.61
   7   5  -8  321.76   45.46
   7   5  -8  270.14   70.29
  -7  -5   8  264.40   42.65
  -7  -5   7  108.69   29.26
   7   5  -7  206.11   36.01
   7   5  -7  204.02   66.15
   7   5  -6  476.90   56.03
   7   5  -6  544.51   47.75
   7   5  -5  160.67   33.04
   7   5  -5  202.02   27.78
   7   5  -4  161.01   32.39
   7   5  -4  102.06   18.46
   7   5  -4  156.13   58.16
   7   5  -3  486.80   39.57
   7   5  -3  576.97   61.59
   7   5  -3  616.72  113.79
   7   5  -2  562.88   61.23
  -7  -5   2  608.53   65.87
   7   5  -2  543.44  110.69
   7   5  -2  609.64   56.82
   7   5  -2  507.08   39.03
   7   5  -2  553.85   51.34
   7   5  -1  322.19   46.80
   7   5  -1  309.04   40.80
   7   5  -1  286.58   80.21
  -7  -5   1  349.13   52.38
   7   5   0  165.49   30.28
   7   5   0  194.23   36.15
   7   5   0  281.05   87.80
  -7  -5   0  173.48   37.90
   7   5   1  574.94   58.06
   7   5   1  691.80  135.78
   7   5   1  590.97   63.63
  -7  -5  -1  631.19   56.85
  -7  -5  -1  498.35   66.73
  -7  -5  -2  486.41   69.42
   7   5   2  623.64  132.87
   7   5   2  587.65   59.33
   7   5   3  116.54   25.69
   7   5   3  223.35   84.02
  -7  -5  -3  111.37   36.06
   7   5   3  142.17   48.59
  -7  -5  -4    1.97   11.10
   7   5   4   37.22   17.02
   7   5   4   47.96   48.95
  -7  -5  -5    6.61    8.61
   7   5   5   21.59   13.62
   7   6 -14   29.80   30.26
   7   6 -13   29.96   30.21
  -7  -6  13   14.06   17.48
   7   6 -12  115.45   50.60
  -7  -6  12   62.17   25.41
  -7  -6  11   44.70   23.23
   7   6 -11   69.48   32.44
  -7  -6  10   25.22   12.61
   7   6 -10   -1.34   19.06
   7   6  -9  101.81   27.29
   7   6  -9  137.55   51.27
  -7  -6   9   81.10   24.18
  -7  -6   8    4.64    9.09
   7   6  -8   47.36   18.67
  -7  -6   8   36.91   16.79
   7   6  -7  272.49   77.34
   7   6  -7  277.67   44.07
   7   6  -6   19.11   15.52
   7   6  -6   58.68   41.60
   7   6  -6   11.96    7.65
   7   6  -5   13.40   13.59
   7   6  -5   64.53   48.29
   7   6  -5   38.08   12.46
   7   6  -4 1095.08   89.14
   7   6  -4 1170.44  168.79
   7   6  -4  933.58   55.80
   7   6  -3  534.13  113.94
   7   6  -3  357.70   50.18
   7   6  -2  195.76   77.66
  -7  -6   2  239.49   41.46
   7   6  -2  212.06   39.60
  -7  -6   1  118.76   30.83
   7   6  -1  144.97   55.94
  -7  -6   0  359.92   55.22
   7   6   0  397.81   84.13
  -7  -6  -1  541.29   70.39
   7   6   1  304.12   73.03
   7   6   1  531.19  127.92
  -7  -6  -2  345.96   57.91
   7   6   2  283.83   73.02
   7   6   2  339.45   96.65
   7   6   3   15.06   19.99
  -7  -6  -3   29.88   18.52
  -7  -6  -4  218.18   51.82
   7   7 -15  302.91   77.59
   7   7 -14   29.85   32.77
  -7  -7  13   37.07   25.22
   7   7 -13   59.42   33.10
  -7  -7  12  136.06   36.86
   7   7 -12  201.35   65.85
   7   7 -12  126.63   35.92
  -7  -7  11   76.75   24.41
   7   7 -11   88.26   47.24
   7   7 -11   33.38   28.60
  -7  -7  10   -1.28    8.81
   7   7 -10   48.30   27.32
   7   7 -10    8.76   25.49
   7   7  -9   28.62   33.77
  -7  -7   9    9.93   11.36
   7   7  -9   -5.01   20.68
   7   7  -8   40.93   32.10
  -7  -7   8    4.34    6.41
   7   7  -8   25.81   28.98
   7   7  -7   60.78   32.36
   7   7  -6  180.70   68.47
   7   7  -5  -12.57   27.92
   7   7  -4   21.98   26.68
   7   7  -4   93.11   57.02
   7   7  -3  101.92   46.61
   7   7  -3   92.89   60.32
  -7  -7   2   10.69   14.41
   7   7  -2   14.49   20.02
   7   7  -2   12.87   29.80
  -7  -7   1   38.27   15.85
   7   7  -1   34.99   28.42
   7   7  -1   50.80   39.81
  -7  -7   0  261.00   46.55
   7   7   0  165.76   59.88
   7   7   0  280.45   92.17
   7   7   1  212.71   65.18
  -7  -7  -1  335.36   54.97
   7   7   2   70.92   37.54
   7   8 -14  358.81   88.42
  -7  -8  13  360.36   61.37
   7   8 -13  326.39   85.01
  -7  -8  12  190.42   43.45
   7   8 -12  153.64   57.73
   7   8 -12  258.99   55.91
  -7  -8  11   73.46   26.54
   7   8 -11   50.46   27.95
  -7  -8  10   83.22   26.29
   7   8 -10  147.15   55.23
   7   8 -10  128.90   45.76
  -7  -8   9  125.93   30.77
   7   8  -9  140.96   53.39
   7   8  -9  211.17   58.82
  -7  -8   8   47.35   18.49
   7   8  -8    3.55   18.13
   7   8  -8   80.10   41.91
   7   8  -7    7.81   23.69
   7   8  -7   73.56   50.70
   7   8  -6   35.24   28.87
   7   8  -6  -15.94   21.57
   7   8  -5   28.64   25.76
   7   8  -5   -1.41   18.87
   7   8  -4   63.76   41.03
   7   8  -4  120.77   68.35
   7   8  -3   36.22   33.68
   7   8  -3   66.10   47.02
   7   8  -2   -4.21   31.30
   7   8  -2   43.27   29.26
   7   8  -1   18.60   26.31
   7   8   0  133.40   51.09
   7   8   1   41.97   32.90
  -7  -9  13  333.23   59.06
  -7  -9  12  205.66   44.49
   7   9 -12  231.33   73.53
   7   9 -12  250.81   53.59
  -7  -9  11  136.10   35.04
   7   9 -11  250.80   76.71
   7   9 -11  263.06   61.36
  -7  -9  10  207.30   40.79
   7   9 -10  215.49   74.65
   7   9 -10  389.26   79.17
  -7  -9   9  339.33   50.29
   7   9  -9  409.79   95.50
   7   9  -8  112.87   45.49
   7   9  -8  317.04   78.72
   7   9  -7   -3.82   24.42
   7   9  -7   41.48   29.63
   7   9  -6   27.41   29.73
   7   9  -6    5.28   20.17
   7   9  -5  206.51   67.06
   7   9  -5  311.60   85.50
   7   9  -4  -29.20   29.68
   7   9  -4   17.46   17.30
   7   9  -3   67.53   41.67
   7   9  -2   51.30   36.88
   7   9  -1  -22.23   26.68
  -7 -10  13  207.74   46.15
  -7 -10  12  170.52   41.20
   7  10 -11  427.68   80.32
  -7 -10  11  388.77   58.35
   7  10 -10  437.79   85.64
   7  10  -9  411.05   86.48
   7  10  -8  118.37   49.36
   7  10  -7  209.29   68.54
   7  11 -11  220.82   56.96
   7  11 -10  262.17   67.14
   8 -12   0  207.43   42.43
   8 -12   1   71.12   24.74
   8 -12   2   75.97   27.96
   8 -12   3   22.17   18.45
   8 -11  -3   49.89   28.22
   8 -11  -1  167.16   35.03
   8 -11   0  167.25   36.54
   8 -11   1  302.16   50.03
   8 -11   2  196.99   41.58
   8 -11   3   31.71   20.38
   8 -11   4  367.78   60.32
  -8  11  -4  241.92   46.04
  -8  11  -5  130.00   35.16
  -8  11  -6   40.25   24.86
  -8  11  -7   57.72   23.63
  -8  11  -8   91.91   34.23
   8 -10  -5   86.84   35.81
   8 -10  -4   35.24   22.88
   8 -10  -4    7.45   11.27
   8 -10  -3   38.52   21.83
   8 -10  -3   12.44   16.97
   8 -10  -2  164.47   44.84
   8 -10  -2  251.06   63.61
   8 -10  -2  224.79   37.31
   8 -10  -1  477.72   76.53
   8 -10  -1  521.84   90.95
   8 -10  -1  590.04   62.66
   8 -10   0  213.02   51.22
   8 -10   0  243.08   63.46
   8 -10   0  167.44   34.83
   8 -10   1   15.57   22.38
   8 -10   1   19.83   18.61
   8 -10   1    5.11    8.46
   8 -10   2   70.48   32.25
   8 -10   2   52.39   36.11
   8 -10   2   87.00   27.16
  -8  10  -3  656.63   75.33
   8 -10   3  624.35   85.73
   8 -10   3  615.59  104.74
   8 -10   3  726.76   78.58
   8 -10   4  163.44   39.99
  -8  10  -4   97.48   28.03
   8 -10   4  155.34   44.71
   8 -10   5   -1.59   12.40
   8 -10   5   25.89   21.16
   8 -10   6   67.51   30.21
  -8  10  -6   95.08   34.16
   8 -10   7  141.14   38.37
  -8  10  -7  158.99   44.19
   8 -10   8  188.10   46.11
  -8  10  -8  163.63   46.69
   8  -9  -7   22.53   18.40
   8  -9  -6  167.18   44.77
   8  -9  -6  180.31   44.01
   8  -9  -5   15.69   16.17
   8  -9  -5   47.52   32.93
   8  -9  -5   66.76   27.55
   8  -9  -4  124.27   36.83
   8  -9  -4   92.04   31.56
   8  -9  -4   35.61   27.47
   8  -9  -3  195.01   32.16
   8  -9  -3  298.31   55.03
   8  -9  -3  228.88   49.89
   8  -9  -3  184.19   53.67
   8  -9  -2  168.59   43.12
   8  -9  -2  226.80   57.47
   8  -9  -2  231.66   35.75
   8  -9  -1   77.55   29.58
   8  -9  -1    7.46   14.38
   8  -9  -1   70.97   21.21
   8  -9   0   -1.85   10.95
   8  -9   0   36.00   29.45
   8  -9   0    3.26   11.83
   8  -9   1  359.42   61.54
   8  -9   1  238.42   61.85
   8  -9   1  331.54   48.30
  -8   9  -2  115.54   31.72
   8  -9   2   96.73   33.84
   8  -9   2  169.50   57.01
   8  -9   2  107.76   28.68
  -8   9  -3  165.07   37.51
   8  -9   3  168.41   43.05
   8  -9   3  184.53   56.37
   8  -9   3  232.97   43.16
  -8   9  -4  152.31   38.70
   8  -9   4  116.86   33.92
   8  -9   4  108.95   42.75
   8  -9   4  173.18   37.20
   8  -9   5   72.40   25.36
  -8   9  -5   47.09   23.90
   8  -9   5   71.79   28.03
   8  -9   6   82.44   27.66
   8  -9   6   89.35   30.41
  -8   9  -6  131.19   40.32
   8  -9   7  119.93   34.65
  -8   9  -7  165.51   46.72
   8  -9   8   82.59   29.87
  -8   9  -8  110.94   41.23
   8  -9   9   -9.18   10.27
   8  -8  -8  161.68   40.13
   8  -8  -7  370.00   70.40
   8  -8  -7  376.41   72.11
   8  -8  -7  354.85   58.72
   8  -8  -6   72.18   29.84
   8  -8  -6   43.42   25.19
   8  -8  -6   57.89   25.28
   8  -8  -5   52.57   25.18
   8  -8  -5   46.18   24.92
   8  -8  -5   36.72   24.77
   8  -8  -4  142.55   24.42
   8  -8  -4  105.17   33.40
   8  -8  -4  173.49   41.59
   8  -8  -4  105.79   37.53
   8  -8  -3  320.91   39.07
   8  -8  -3  247.46   45.61
   8  -8  -3  244.88   48.83
   8  -8  -3  233.04   57.08
   8  -8  -2  112.71   24.92
   8  -8  -2   97.77   28.89
   8  -8  -2  128.95   35.86
   8  -8  -2  124.74   41.82
   8  -8  -1   22.10   17.23
   8  -8  -1   17.67   19.05
   8  -8  -1   31.94   13.95
   8  -8   0  269.87   50.70
   8  -8   0  189.25   52.76
   8  -8   0  276.47   40.95
  -8   8  -1  223.20   43.51
   8  -8   1  233.23   47.82
   8  -8   1  154.13   46.62
   8  -8   1  246.81   40.45
  -8   8  -2  269.41   48.28
   8  -8   2  303.25   53.78
   8  -8   2  359.36   72.38
   8  -8   2  349.21   49.03
  -8   8  -3   48.55   21.36
   8  -8   3   32.69   20.21
   8  -8   3   39.92   25.00
   8  -8   3    3.96    6.59
  -8   8  -4    0.69   14.17
   8  -8   4    2.27    9.57
   8  -8   4    3.58    9.46
   8  -8   4    5.92   10.89
   8  -8   5   57.92   24.06
  -8   8  -5   47.87   25.52
   8  -8   5   63.80   26.26
   8  -8   6  206.02   41.92
  -8   8  -6  230.36   52.12
   8  -8   6  246.11   47.19
   8  -8   7   92.58   28.79
   8  -8   7  101.77   30.81
  -8   8  -7   52.21   24.04
   8  -8   8  -30.81   17.60
  -8   8  -8   -5.18   16.94
   8  -8   9   36.70   20.58
   8  -7  -8  192.39   50.13
   8  -7  -8  142.91   42.12
   8  -7  -8  119.53   33.07
   8  -7  -7   18.79   15.20
   8  -7  -7   67.34   31.46
   8  -7  -7   91.54   27.88
   8  -7  -6   47.88   24.43
   8  -7  -6   74.72   26.30
   8  -7  -6   77.55   28.64
   8  -7  -5  208.88   27.74
   8  -7  -5  226.14   45.73
   8  -7  -5  247.11   46.50
   8  -7  -5  153.60   42.34
   8  -7  -4  408.61   41.64
   8  -7  -4  414.82   58.08
   8  -7  -4  305.12   51.93
   8  -7  -4  446.28   72.84
   8  -7  -3  291.39   36.79
   8  -7  -3  230.60   41.78
   8  -7  -3  251.63   48.68
   8  -7  -3  251.50   53.99
   8  -7  -2  238.86   34.66
   8  -7  -2  196.82   35.88
   8  -7  -2  137.47   35.81
   8  -7  -2  149.98   41.06
   8  -7  -1  479.91   65.55
   8  -7  -1  423.76   72.93
   8  -7  -1  655.35   59.18
  -8   7   0   17.25   13.78
   8  -7   0   29.53   15.09
   8  -7   0   23.76   18.05
   8  -7   0   21.89   14.12
  -8   7  -1  478.81   63.32
   8  -7   1  435.67   61.47
   8  -7   1  499.18   81.76
   8  -7   1  468.21   53.70
  -8   7  -2  282.96   49.83
   8  -7   2  283.99   49.61
   8  -7   2  307.04   63.04
   8  -7   2  243.26   40.02
  -8   7  -3   10.95   11.21
   8  -7   3  -10.13   14.31
   8  -7   3    6.23    6.32
  -8   7  -4  306.21   56.86
   8  -7   4  296.04   50.94
   8  -7   4  307.23   65.76
   8  -7   4  313.89   50.04
   8  -7   5  117.01   30.19
  -8   7  -5  128.73   39.11
   8  -7   5  134.43   33.75
   8  -7   6   44.71   18.73
  -8   7  -6   22.20   24.52
   8  -7   6   41.86   21.05
   8  -7   7   97.30   29.05
   8  -7   7   85.05   27.86
  -8   7  -7  139.57   44.97
   8  -7   8    7.68    8.41
  -8   7  -8    8.13   21.71
   8  -6  -9  122.11   40.79
   8  -6  -9  108.45   38.47
   8  -6  -9  135.42   33.47
   8  -6  -8   27.62   19.99
   8  -6  -8   24.63   20.39
   8  -6  -8   28.05   15.53
   8  -6  -7   62.74   27.71
   8  -6  -7  124.99   37.61
   8  -6  -7  107.08   29.94
   8  -6  -6  114.12   34.04
   8  -6  -6  119.06   31.06
   8  -6  -6   91.38   31.76
   8  -6  -5   61.69   15.35
   8  -6  -5   28.41   17.73
   8  -6  -5   29.91   23.75
   8  -6  -5   22.12   17.33
  -8   6   4  638.53   59.47
   8  -6  -4  623.82   51.21
   8  -6  -4  500.90   74.73
   8  -6  -4  564.43   63.63
   8  -6  -4  630.22   71.87
   8  -6  -3  105.15   22.21
   8  -6  -3   26.60   19.75
   8  -6  -3   95.90   34.22
   8  -6  -2  295.39   37.40
   8  -6  -2  231.60   34.79
   8  -6  -2  213.44   43.57
   8  -6  -2  234.12   50.67
   8  -6  -1  291.65   48.41
   8  -6  -1  382.03   65.71
   8  -6  -1  298.87   36.35
   8  -6  -1  288.97   38.82
  -8   6   0  687.83   75.81
   8  -6   0  724.97   78.35
   8  -6   0  801.20   97.44
   8  -6   0  757.00   65.37
  -8   6  -1  402.35   59.25
   8  -6   1  331.57   50.97
   8  -6   1  404.54   68.52
   8  -6   1  461.14   51.98
  -8   6  -2  126.47   33.37
   8  -6   2  165.35   36.45
   8  -6   2  126.64   41.44
   8  -6   2  209.01   35.63
  -8   6  -3  348.01   58.81
   8  -6   3  377.48   55.51
   8  -6   3  357.63   66.75
   8  -6   3  345.03   47.35
  -8   6  -4  139.23   37.99
   8  -6   4  101.57   28.81
   8  -6   4  121.03   39.85
   8  -6   4  140.42   31.21
   8  -6   5  585.86   66.09
  -8   6  -5  674.41   90.20
   8  -6   5  576.48   67.99
   8  -6   6  135.73   32.67
  -8   6  -6  115.27   38.38
   8  -6   6   72.42   23.96
   8  -6   7   27.39   17.35
   8  -6   7   43.06   19.37
  -8   6  -7   55.47   32.69
   8  -6   8   22.56   18.59
   8  -5 -10   82.77   36.13
   8  -5 -10   41.36   15.70
   8  -5 -10   60.87   31.02
   8  -5  -9   93.54   32.57
   8  -5  -9  123.15   29.99
   8  -5  -9  163.77   44.39
   8  -5  -8  -25.64   14.94
   8  -5  -8    6.05    8.34
   8  -5  -7   12.02   15.17
   8  -5  -7   24.68   16.20
   8  -5  -7   13.66   12.09
   8  -5  -6    5.85    9.86
   8  -5  -6    5.74    4.62
   8  -5  -6   -1.28    6.41
   8  -5  -5  350.71   35.79
  -8   5   5  362.14   41.96
   8  -5  -5  319.66   49.64
   8  -5  -5  322.47   48.48
   8  -5  -5  281.42   53.14
   8  -5  -4   50.37   17.87
   8  -5  -4   56.72   24.53
   8  -5  -4   88.85   18.72
  -8   5   4   85.99   21.31
   8  -5  -4   96.96   31.83
   8  -5  -3   24.29   11.18
   8  -5  -3   39.42   16.78
   8  -5  -3   55.45   15.82
  -8   5   3   60.58   18.74
   8  -5  -3   57.93   26.64
   8  -5  -2  162.79   27.24
   8  -5  -2   81.26   27.91
   8  -5  -2  178.87   42.80
   8  -5  -2  167.52   26.71
   8  -5  -1   88.66   17.70
   8  -5  -1   60.80   21.55
  -8   5   1   89.43   27.56
   8  -5  -1  104.67   33.67
   8  -5  -1  126.12   25.53
   8  -5   0  761.66   76.72
  -8   5   0  822.94   83.46
   8  -5   0  750.46   44.60
   8  -5   0  755.38   90.53
   8  -5   0  797.39   66.14
   8  -5   1  197.31   38.63
   8  -5   1  183.17   32.04
  -8   5  -1  174.89   38.96
   8  -5   1  207.90   47.46
   8  -5   1  201.02   17.98
   8  -5   2  368.10   19.62
   8  -5   2  431.75   57.43
  -8   5  -2  493.52   68.47
   8  -5   2  343.02   18.19
   8  -5   2  365.86   64.37
   8  -5   2  440.66   51.18
   8  -5   3  421.66   56.88
  -8   5  -3  386.67   63.54
   8  -5   3  345.94   63.12
   8  -5   3  390.29   50.44
   8  -5   4  715.24   74.58
  -8   5  -4  692.29   89.03
   8  -5   4  625.43   86.73
   8  -5   4  609.64   65.33
   8  -5   5  266.44   44.38
   8  -5   5  340.48   50.44
  -8   5  -5  376.66   67.27
   8  -5   6  121.37   32.53
   8  -5   6  116.78   30.85
  -8   5  -6  159.46   46.09
   8  -5   7   79.21   28.27
  -8   5  -7  100.17   39.21
   8  -5   7   48.85   20.89
   8  -5   8  320.80   49.84
   8  -4 -11  282.85   66.13
   8  -4 -10  125.23   30.77
   8  -4 -10  137.49   42.78
   8  -4 -10  134.19   42.25
   8  -4  -9   50.51   21.63
   8  -4  -9   93.00   32.25
   8  -4  -9   29.73   17.93
   8  -4  -8    7.73    9.89
   8  -4  -8  -20.73   16.37
   8  -4  -8   -5.10   10.11
   8  -4  -7   35.53    9.81
   8  -4  -7   25.73   14.00
   8  -4  -7   75.44   27.87
   8  -4  -7   39.43   25.27
   8  -4  -6   51.24   21.19
   8  -4  -6   58.54   22.53
   8  -4  -6   87.26   16.78
  -8   4   6   66.11   16.29
   8  -4  -6   45.01   21.14
   8  -4  -5   16.97   16.32
   8  -4  -5   12.83   10.84
   8  -4  -5   15.33    8.67
  -8   4   5    9.99    6.86
   8  -4  -5   -8.55   12.49
   8  -4  -4    7.63   10.85
   8  -4  -4   11.31   14.00
   8  -4  -4    0.69    4.21
  -8   4   4   -3.57    5.40
   8  -4  -4    4.17   13.73
   8  -4  -3   -0.21    5.64
   8  -4  -3   -5.22    9.27
   8  -4  -3   -2.60    6.64
  -8   4   3   -1.42    5.46
   8  -4  -3   15.91   17.26
   8  -4  -2  133.69   24.92
   8  -4  -2  111.49   31.45
   8  -4  -2  111.43   29.78
   8  -4  -2   78.29   16.72
   8  -4  -1  273.83   23.02
   8  -4  -1  244.78   35.16
  -8   4   1  262.39   45.90
   8  -4  -1  315.13   48.39
   8  -4  -1  272.92   52.48
   8  -4   0   54.35   18.62
  -8   4   0   65.47   26.40
   8  -4   0   53.39   21.51
   8  -4   0   82.47   30.61
   8  -4   1  122.37   25.59
  -8   4  -1  149.68   37.90
   8  -4   1   95.56   27.04
   8  -4   1   98.58   31.42
   8  -4   2   91.95   24.95
  -8   4  -2   53.10   25.02
   8  -4   2   65.39   22.72
   8  -4   2   41.57   23.23
   8  -4   3  363.49   49.14
  -8   4  -3  311.59   57.24
   8  -4   3  313.80   47.27
   8  -4   3  393.67   63.55
   8  -4   4  428.11   53.55
  -8   4  -4  425.57   71.23
   8  -4   4  472.49   58.86
   8  -4   4  513.25   75.23
  -8   4  -5  280.10   60.31
   8  -4   5  243.72   42.77
   8  -4   5  298.14   45.53
  -8   4  -6  281.79   60.97
   8  -4   6  253.03   43.33
   8  -4   6  306.55   47.23
   8  -4   7  624.66   70.04
   8  -4   7  668.53   69.79
  -8   4  -7  584.31   91.61
   8  -3 -12  197.11   55.08
   8  -3 -11  218.54   37.13
   8  -3 -11  212.77   52.12
   8  -3 -11  130.62   44.26
   8  -3 -10  453.97   71.17
   8  -3 -10  507.86   59.15
   8  -3 -10  618.27   88.93
   8  -3  -9   72.24   27.81
   8  -3  -9   43.56   15.33
   8  -3  -9  110.26   37.46
   8  -3  -8   75.21   27.86
   8  -3  -8   53.80   18.58
   8  -3  -8  100.64   35.76
   8  -3  -7  181.02   23.02
   8  -3  -7  260.12   47.31
   8  -3  -7  175.96   39.88
   8  -3  -7  211.15   39.07
   8  -3  -6  275.20   30.45
  -8   3   6  271.83   34.54
   8  -3  -6  306.88   46.68
   8  -3  -6  225.91   40.63
   8  -3  -6  300.56   50.52
   8  -3  -5   25.39   13.80
   8  -3  -5   41.16   19.44
   8  -3  -5   24.05   10.81
  -8   3   5   31.74   12.80
   8  -3  -5   61.57   24.46
   8  -3  -4   -3.56    5.43
   8  -3  -4   14.76   12.21
   8  -3  -4   -0.34    5.36
  -8   3   4    5.97    5.89
   8  -3  -4   19.41   15.47
   8  -3  -3   30.07   11.82
   8  -3  -3   21.81   17.79
   8  -3  -3   28.18   14.87
   8  -3  -3   37.85   11.95
   8  -3  -2   11.47    9.14
  -8   3   2   23.38   18.48
   8  -3  -2   25.01   14.64
   8  -3  -2   20.18   11.89
   8  -3  -1    4.65    9.67
  -8   3   1  -28.60   16.95
   8  -3  -1    0.90    6.40
   8  -3  -1   -9.52   11.66
   8  -3   0   12.27    8.75
  -8   3   0   31.78   18.66
   8  -3   0   27.36   19.78
   8  -3   0    1.89   11.28
   8  -3   1   39.61   15.45
  -8   3  -1   50.54   23.54
   8  -3   1   12.39    6.77
   8  -3   1   41.16   20.83
   8  -3   2  348.22   45.64
  -8   3  -2  279.67   53.24
   8  -3   2  290.93   44.86
   8  -3   2  291.49   53.36
   8  -3   3  336.38   45.59
  -8   3  -3  265.40   54.38
   8  -3   3  255.15   42.86
   8  -3   3  276.36   50.90
   8  -3   4   51.38   20.56
  -8   3  -4   29.47   20.60
   8  -3   4   29.47   16.27
   8  -3   4   12.52   13.10
   8  -3   5  101.13   27.53
  -8   3  -5   69.34   31.48
   8  -3   5   96.31   25.62
  -8   3  -6    7.88   19.12
   8  -3   6   47.69   19.61
   8  -3   7  308.15   48.85
   8  -3   7  308.63   46.32
   8  -2 -11  566.63   80.34
   8  -2 -11  506.13   56.96
   8  -2 -10  369.56   61.30
   8  -2 -10  428.93   53.13
   8  -2  -9  293.09   43.94
   8  -2  -9  280.36   52.04
   8  -2  -8 1010.31   84.54
   8  -2  -8 1035.21   95.35
  -8   2   7  275.49   33.68
   8  -2  -7  230.56   43.76
   8  -2  -7  289.56   44.26
   8  -2  -7  313.95   31.35
  -8   2   6  359.97   39.61
   8  -2  -6  276.50   43.34
   8  -2  -6  307.75   32.90
  -8   2   5  220.89   31.82
   8  -2  -5  278.97   45.58
   8  -2  -5  233.49   39.93
   8  -2  -5  283.33   32.74
   8  -2  -4  179.26   35.88
  -8   2   4  167.13   28.34
   8  -2  -4  121.86   21.69
   8  -2  -4  155.76   36.15
   8  -2  -3  157.51   32.32
   8  -2  -3  169.95   26.45
   8  -2  -3  155.60   35.14
   8  -2  -2   -0.62    4.77
  -8   2   2   12.82   18.12
   8  -2  -2   -3.42    7.20
   8  -2  -2    3.36   11.43
   8  -2  -1   88.56   20.77
  -8   2   1  106.43   30.97
   8  -2  -1   66.42   22.84
   8  -2  -1  134.76   34.60
   8  -2   0   10.91    8.51
  -8   2   0    4.86    9.78
   8  -2   0   14.96   14.13
   8  -2   0    9.86   12.17
   8  -2   1   36.94   12.13
  -8   2  -1  102.18   31.20
   8  -2   1   67.69   22.83
   8  -2   1   66.00   24.77
   8  -2   2    3.56    8.18
  -8   2  -2    7.79   15.95
   8  -2   2   24.88   15.85
   8  -2   2   12.71   14.08
   8  -2   3  129.40   28.69
  -8   2  -3  174.94   46.02
   8  -2   3  166.61   33.34
   8  -2   3  158.99   39.00
   8  -2   4  170.15   34.64
  -8   2  -4  139.94   42.61
   8  -2   4  158.13   33.34
   8  -2   4  144.96   38.03
   8  -2   5   44.30   18.76
  -8   2  -5   66.85   33.50
   8  -2   5   32.11   16.18
   8  -2   6  206.09   38.87
  -8   2  -6  244.41   60.69
   8  -2   6  283.91   44.18
   8  -2   7  124.53   28.08
   8  -2   7   64.89   23.63
   8  -1 -12  386.03   69.07
   8  -1 -12  395.93   49.59
   8  -1 -11  428.63   67.82
   8  -1 -11  400.31   49.66
   8  -1 -10  111.87   26.82
   8  -1 -10  204.30   44.50
   8  -1  -9  428.51   60.99
   8  -1  -9  515.17   58.34
  -8   1   8  478.03   43.42
   8  -1  -8  430.07   54.02
   8  -1  -8  438.78   59.72
  -8   1   7 1583.33   87.27
   8  -1  -7 1549.45  112.00
   8  -1  -7 1669.00  110.15
   8  -1  -7 1812.36   84.19
  -8   1   6  510.31   47.97
   8  -1  -6  450.75   57.60
   8  -1  -6  513.71   59.09
   8  -1  -6  523.69   44.06
  -8   1   5  317.73   38.40
   8  -1  -5  362.74   49.19
   8  -1  -5  297.07   34.42
   8  -1  -5  274.27   44.47
   8  -1  -4  805.40   75.47
   8  -1  -4  718.27   55.68
   8  -1  -4  748.48   75.21
   8  -1  -3  648.26   66.74
   8  -1  -3  610.05   52.99
   8  -1  -3  568.67   66.45
   8  -1  -2  649.37   55.68
  -8   1   2  612.79   71.64
   8  -1  -2  671.89   68.48
   8  -1  -2  682.48   73.72
  -8   1   1  101.95   29.99
   8  -1  -1   81.45   23.74
   8  -1  -1  140.51   35.33
   8  -1  -1   82.30   19.76
  -8   1   0   13.75   13.21
   8  -1   0   -0.06    8.87
   8  -1   0    8.24   11.98
   8  -1   0    9.54   10.28
  -8   1  -1  122.66   35.00
   8  -1   1   98.65   27.75
   8  -1   1  122.12   30.78
   8  -1   1   80.87   21.24
  -8   1  -2   70.57   30.91
   8  -1   2   85.86   24.32
   8  -1   2   57.28   22.15
   8  -1   2   44.87   16.53
  -8   1  -3   -7.85   16.35
   8  -1   3    1.22    9.12
   8  -1   3    3.72    9.58
   8  -1   3   -0.31    5.89
   8  -1   4    3.08    5.65
   8  -1   4   20.89   14.86
  -8   1  -4   36.36   23.08
   8  -1   5   33.73   15.83
   8  -1   5   15.04   11.92
  -8   1  -5   20.12   16.61
   8  -1   6   15.74   12.48
  -8   1  -6   -1.10   10.93
   8  -1   6   -4.01    5.77
   8  -1   7    8.87   12.12
   8  -1   7  122.33   62.65
   8  -1   8   25.88   28.80
   8   0 -12  154.71   30.49
   8   0 -11   17.48   12.95
   8   0 -10  328.32   45.96
   8   0  -9  115.19   27.63
   8   0  -8  684.17   67.27
  -8   0   8  684.42   54.50
  -8   0   7  512.33   47.92
   8   0  -7  488.69   59.51
   8   0  -7  524.33   59.27
   8   0  -7  590.26   46.72
  -8   0   6  413.99   43.76
   8   0  -6  328.50   48.83
   8   0  -6  318.93   45.73
   8   0  -6  425.64   40.03
   8   0  -5 1247.79   92.36
   8   0  -5 1094.16   68.98
   8   0  -5 1015.64   87.15
   8   0  -4 1280.98   94.53
   8   0  -4 1142.44   73.33
   8   0  -4 1202.84   94.47
   8   0  -3  722.75   71.02
   8   0  -3  720.48   57.94
   8   0  -3  674.98   71.35
   8   0  -2  731.94   60.29
   8   0  -2  820.86   74.44
   8   0  -2  761.68   76.19
  -8   0   2  681.78   75.48
   8   0  -1  436.72   47.64
   8   0  -1  394.43   50.94
   8   0  -1  472.62   59.22
  -8   0   1  457.77   62.74
   8   0   0  522.79   53.36
   8   0   0  582.01   62.45
   8   0   0  445.10   58.12
  -8   0   0  566.98   72.87
   8   0   1  370.64   46.35
  -8   0  -1  381.37   60.90
   8   0   1  345.86   47.44
   8   0   1  374.19   51.94
  -8   0  -2  274.05   53.62
   8   0   2  244.28   39.57
   8   0   2  255.34   42.62
   8   0   2  303.73   42.47
  -8   0  -3   87.38   31.26
   8   0   3   67.38   20.53
   8   0   3   36.36   15.30
   8   0   3  110.85   26.72
   8   0   4    0.32    8.31
  -8   0  -4   -6.30   12.02
   8   0   4   -0.83    8.41
   8   0   5  122.23   29.48
   8   0   5  100.36   25.52
  -8   0  -5  111.84   41.54
   8   0   6   13.25   11.27
   8   0   6   15.95    8.72
  -8   0  -6   12.39   15.08
   8   0   6   25.39   26.36
   8   0   7   31.48   51.23
   8   1 -13  131.19   29.44
   8   1 -12   16.44   10.62
  -8  -1  12    4.22    9.56
   8   1 -11   85.29   23.67
  -8  -1  11   64.26   24.97
   8   1 -10    0.94    6.47
   8   1  -9  486.17   56.89
  -8  -1   9  529.06   60.67
   8   1  -8  250.12   41.82
  -8  -1   8  233.86   37.69
   8   1  -7   27.39   12.64
  -8  -1   7   20.36   10.97
   8   1  -6  396.71   51.79
   8   1  -6  413.56   41.16
   8   1  -5  178.27   27.20
   8   1  -5  224.74   38.54
   8   1  -5  157.03   32.62
   8   1  -4 1285.44   94.33
   8   1  -4 1489.43  102.09
   8   1  -4 1254.25   78.85
  -8  -1   3  464.71   61.15
   8   1  -3  508.70   58.59
   8   1  -3  436.44   55.06
   8   1  -3  454.44   46.69
  -8  -1   2  319.50   51.08
   8   1  -2  458.06   56.46
   8   1  -2  420.67   52.00
   8   1  -2  338.84   41.50
   8   1  -1 1027.93   83.22
  -8  -1   1 1037.70   96.74
   8   1  -1 1019.46   78.42
   8   1  -1 1062.99   88.12
   8   1  -1  910.74   71.24
   8   1   0 1124.22   87.50
  -8  -1   0 1047.45   99.40
   8   1   0 1008.13   78.12
   8   1   0 1246.04   92.39
   8   1   0 1008.80   77.16
   8   1   1  849.65   75.13
   8   1   1  775.92   69.02
  -8  -1  -1  977.42   99.29
   8   1   1  701.61   65.54
   8   1   1  821.24   73.06
  -8  -1  -2  156.87   41.69
   8   1   2  153.24   31.53
   8   1   2  123.35   27.13
   8   1   2  169.55   32.37
   8   1   3  158.28   31.74
   8   1   3  170.18   33.87
  -8  -1  -3  255.63   54.71
   8   1   4  290.55   43.99
   8   1   4  227.95   71.35
   8   1   4  263.77   41.80
  -8  -1  -4  237.19   53.70
   8   1   5  255.33   42.05
   8   1   5  255.27   78.46
   8   1   5  220.42   37.78
  -8  -1  -5  263.76   58.58
   8   1   6   63.21   41.14
   8   1   6   83.94   24.60
   8   2 -13    7.90   11.99
  -8  -2  12   -1.57   13.65
   8   2 -12   52.51   19.41
   8   2 -11   -0.34   11.87
  -8  -2  11   28.56   16.98
   8   2 -11   13.97   10.48
   8   2 -10   13.96   13.20
   8   2 -10   17.71    9.18
  -8  -2   9   13.33   12.44
   8   2  -9   26.39   18.00
   8   2  -9   -3.15    7.86
  -8  -2   8  112.63   25.73
   8   2  -8   98.30   26.10
  -8  -2   7    7.96    9.59
   8   2  -7   13.00   13.42
   8   2  -6   54.66   15.86
   8   2  -6   65.13   20.98
  -8  -2   6   79.92   17.14
   8   2  -5  427.20   44.19
  -8  -2   5  479.83   37.07
   8   2  -5  401.83   51.91
   8   2  -4   84.87   20.20
   8   2  -4   70.01   21.40
   8   2  -4  120.42   28.48
   8   2  -3  375.37   49.23
  -8  -2   3  372.02   54.01
   8   2  -3  388.93   44.93
   8   2  -3  413.44   52.21
   8   2  -3  377.27   43.46
   8   2  -2  345.75   48.17
  -8  -2   2  276.83   47.87
   8   2  -2  311.08   40.33
   8   2  -2  294.38   45.28
   8   2  -2  321.00   41.10
   8   2  -1  456.55   55.64
  -8  -2   1  608.00   73.05
   8   2  -1  516.54   52.75
   8   2  -1  584.87   62.22
   8   2  -1  621.64   58.56
   8   2   0  617.37   64.97
  -8  -2   0  818.23   88.03
   8   2   0  762.92   66.30
   8   2   0  732.44   63.20
   8   2   0  792.64   70.51
   8   2   1   56.47   34.25
  -8  -2  -1   86.28   28.50
   8   2   1  127.75   28.25
   8   2   1  116.40   25.48
   8   2   1  108.40   24.24
   8   2   1  106.37   26.67
  -8  -2  -2  530.97   75.54
   8   2   2  478.46   54.96
   8   2   2  519.45   59.01
  -8  -2  -3  599.40   84.06
   8   2   3  544.71  114.43
   8   2   3  662.07   66.13
   8   2   3  514.16   59.23
  -8  -2  -4  423.34   72.31
   8   2   4  420.43   53.04
   8   2   4  302.02   90.38
   8   2   4  387.08   52.71
   8   2   5  250.62   42.05
   8   2   5  300.93   44.70
  -8  -2  -5  325.50   66.46
   8   2   5  330.71  100.53
   8   3 -13   -2.51    8.86
   8   3 -12   30.07   17.37
  -8  -3  12   28.77   18.87
   8   3 -11  115.92   41.33
   8   3 -11   72.30   21.56
  -8  -3  11   70.04   27.53
   8   3 -10   32.50   22.71
   8   3 -10   11.64    7.74
  -8  -3  10   33.44   17.28
   8   3  -9   -2.98   21.67
   8   3  -9   16.39   13.12
  -8  -3   8  -15.17   10.39
   8   3  -8   -5.52   22.36
   8   3  -8    7.72    7.89
  -8  -3   7  -10.13    8.15
   8   3  -7   21.42   22.71
   8   3  -7    2.17    9.26
  -8  -3   6  162.99   26.76
   8   3  -6  130.83   29.36
   8   3  -6  113.71   47.44
   8   3  -5   11.61    9.00
  -8  -3   5    4.87    4.40
   8   3  -5   15.27   11.18
   8   3  -5    5.45   23.42
  -8  -3   4    7.87    5.43
   8   3  -4   24.17   11.71
   8   3  -4    5.27   11.78
   8   3  -4    5.92    9.26
   8   3  -3    0.06    9.20
  -8  -3   3   -4.69   10.69
  -8  -3   3    2.86    2.88
   8   3  -3    8.63    8.07
   8   3  -3    5.56    5.15
   8   3  -3   -5.22    7.40
  -8  -3   2  228.36   43.25
   8   3  -2  310.35   78.33
   8   3  -2  164.67   33.10
   8   3  -2  247.06   36.11
   8   3  -2  265.56   35.10
   8   3  -2  241.54   39.35
  -8  -3   1  330.68   54.86
   8   3  -1  335.49   43.65
   8   3  -1  230.52   64.60
   8   3  -1  304.40   45.13
   8   3  -1  282.57   36.59
   8   3  -1  294.72   42.68
   8   3   0   34.08   31.30
  -8  -3   0  118.83   34.72
   8   3   0   73.53   21.57
   8   3   0   83.51   21.08
   8   3   0   45.32   18.01
  -8  -3  -1  421.81   67.09
   8   3   1  529.25   60.31
   8   3   1  502.96   55.76
   8   3   2  137.45   30.04
  -8  -3  -2  206.39   48.17
   8   3   2  116.69   62.48
   8   3   2  208.22   37.39
   8   3   3  298.72   44.67
  -8  -3  -3  334.40   64.26
   8   3   3  327.69   47.10
   8   3   3  328.94   97.47
   8   3   4  488.93   58.65
  -8  -3  -4  591.49   88.31
   8   3   4  626.74  135.28
   8   3   4  649.70   67.34
   8   4 -13   74.31   23.42
   8   4 -12  288.70   45.67
  -8  -4  12  264.68   53.29
   8   4 -11  290.41   66.99
   8   4 -11  296.28   46.05
  -8  -4  11  307.58   54.73
   8   4 -10  253.65   69.21
   8   4 -10  184.78   36.94
  -8  -4  10  212.86   44.38
   8   4  -9  100.25   28.53
   8   4  -9   54.22   35.21
  -8  -4   8   18.33   14.40
   8   4  -8   36.63   17.07
   8   4  -8    2.57   17.42
  -8  -4   7  234.58   37.06
   8   4  -7  226.01   40.52
   8   4  -7  268.64   69.70
  -8  -4   6   -6.35    6.94
   8   4  -6    5.20    7.64
   8   4  -5   10.23   12.25
   8   4  -5   29.30   29.28
   8   4  -4  130.05   25.80
   8   4  -4   80.00   23.70
   8   4  -4  124.98   23.60
   8   4  -4  135.96   55.20
  -8  -4   3   -2.93   10.48
   8   4  -3   -1.58   20.02
   8   4  -3   -6.73   10.14
   8   4  -3   -6.14    7.41
   8   4  -3   -2.07    5.34
   8   4  -3    5.17    5.35
  -8  -4   2  120.40   33.18
   8   4  -2   37.92   39.56
   8   4  -2   68.87   21.95
   8   4  -2  100.41   24.42
   8   4  -2   97.35   19.77
   8   4  -2  113.16   26.22
   8   4  -1  101.90   53.76
   8   4  -1   66.62   22.36
   8   4  -1   49.18   16.32
  -8  -4   1  101.68   30.17
   8   4  -1   66.93   18.58
   8   4   0   20.67   11.04
   8   4   0   10.36    8.34
  -8  -4   0   15.98   13.71
   8   4   0   31.65   35.99
   8   4   1   18.65   12.24
   8   4   1   25.00   15.78
  -8  -4  -1   26.60   22.82
   8   4   1   14.06   33.16
   8   4   2  255.89   41.31
   8   4   2  214.67   39.92
  -8  -4  -2  272.73   55.32
   8   4   2  234.86   79.46
   8   4   3  149.11   32.64
  -8  -4  -3  157.69   42.84
   8   4   3  172.52   36.06
  -8  -4  -4   27.33   18.07
   8   5 -14   47.86   34.99
  -8  -5  12  733.64   88.04
   8   5 -12  822.73   80.77
   8   5 -11  194.29   58.89
   8   5 -11  274.96   45.45
  -8  -5  11  206.38   45.01
   8   5 -10  181.49   57.56
   8   5 -10  142.19   33.32
  -8  -5  10  154.70   37.35
   8   5  -9  270.89   75.19
   8   5  -9   72.29   22.29
   8   5  -8  419.74   56.30
   8   5  -8  410.37   91.67
   8   5  -7  316.75   84.19
   8   5  -7  324.18   49.48
   8   5  -6  -28.09   28.95
   8   5  -6   15.72   13.66
   8   5  -5  208.34   75.35
   8   5  -5  232.68   41.47
   8   5  -4   45.23   40.94
   8   5  -4   52.93   21.40
   8   5  -3  272.84   40.66
   8   5  -3  176.08   37.01
   8   5  -3  201.85   71.21
   8   5  -2   87.32   54.65
  -8  -5   2  102.43   30.23
   8   5  -2   95.38   24.27
   8   5  -2  114.45   29.67
   8   5  -2   67.81   21.73
   8   5  -1   -3.87    7.91
  -8  -5   1   14.76    8.53
   8   5  -1   -9.99   26.84
   8   5  -1   20.65   16.00
   8   5   0   12.77   10.74
  -8  -5   0   13.56   11.39
   8   5   0   23.28   39.89
   8   5   0   14.21   13.05
   8   5   1    1.23    8.23
  -8  -5  -1   12.40   10.76
   8   5   1   -8.79   29.04
   8   5   1   -4.40    8.19
  -8  -5  -2  168.81   43.77
   8   5   2  125.95   29.86
  -8  -5  -3   -2.26   10.33
   8   5   3   83.99   45.43
   8   6 -14   38.20   30.79
   8   6 -13  217.98   71.61
  -8  -6  12  250.63   52.35
  -8  -6  11  133.60   36.93
   8   6 -11  215.81   57.57
  -8  -6  10  121.76   32.69
   8   6 -10  112.06   33.25
   8   6 -10  128.14   52.15
   8   6  -9  232.09   42.89
   8   6  -9  293.11   79.67
   8   6  -8  555.82   67.09
   8   6  -8  719.59  127.29
   8   6  -7  423.31   58.48
   8   6  -7  447.95  103.91
   8   6  -6   79.67   25.16
   8   6  -6   63.45   51.47
   8   6  -5    4.50    7.57
   8   6  -5  -16.01   30.98
   8   6  -4  594.89   68.54
   8   6  -4  710.04  138.55
   8   6  -3  159.04   35.80
   8   6  -3  114.24   26.00
   8   6  -3  139.91   66.98
  -8  -6   2    7.84   11.83
   8   6  -2    0.78    7.66
  -8  -6   1   -3.53    8.34
   8   6  -1   17.19   27.69
   8   6   0   16.03   16.65
  -8  -6   0   97.54   31.17
   8   6   0  157.65   79.02
  -8  -6  -1  152.00   40.35
   8   6   1  123.30   48.39
  -8  -6  -2   58.81   30.43
   8   6   2  -23.58   26.26
   8   7 -13  125.84   58.24
   8   7 -12  118.11   51.65
  -8  -7  12   42.11   20.83
   8   7 -11   30.60   42.98
  -8  -7  11   24.94   13.36
   8   7 -11   47.43   37.29
   8   7 -10  210.59   64.90
  -8  -7  10  220.67   43.23
   8   7 -10  236.92   66.34
   8   7  -9  568.53  110.88
   8   7  -8  343.10   88.49
   8   7  -7  -29.82   35.32
   8   7  -6  281.57   86.79
   8   7  -5  273.38   89.75
   8   7  -4  226.24   84.38
   8   7  -3  134.87   53.49
   8   7  -3  273.71   98.53
   8   7  -2   11.59   23.17
   8   7  -2  190.64   83.86
  -8  -7   1  121.37   33.28
   8   7  -1  112.98   45.22
  -8  -7   0  110.41   32.99
   8   7   0  123.84   52.89
   8   7   1  140.24   56.45
  -8  -8  12   -7.34   12.10
  -8  -8  11   77.62   26.72
   8   8 -11   46.80   19.58
   8   8 -10  343.62   85.13
  -8  -8  10  227.49   44.02
   8   8 -10  176.32   65.30
   8   8  -9  132.22   57.46
   8   8  -9  176.27   64.16
   8   8  -8  131.28   59.43
   8   8  -8  112.07   51.37
   8   8  -7   49.43   33.93
   8   8  -7    5.83   15.81
   8   8  -6  279.74   88.26
   8   8  -6  291.76   80.30
   8   8  -5  317.33  100.73
   8   8  -5  121.58   53.34
   8   8  -4  145.01   64.76
   8   8  -4  154.20   58.01
   8   8  -3   34.41   39.44
  -8  -9  12  179.66   43.53
  -8  -9  11  134.16   35.78
   8   9 -11  206.91   60.53
   8   9 -10  133.60   53.24
   8   9  -9   24.34   19.89
   8   9  -8   -5.75   19.32
   8   9  -7  251.12   82.34
   8  10 -11  140.55   49.61
   9 -11   0  295.36   49.00
   9 -11   1  154.78   36.73
   9 -11   2  196.46   43.12
  -9  11  -4  139.27   39.42
  -9  11  -5   79.35   28.56
   9 -10  -1  239.73   41.92
   9 -10   0  581.32   65.97
   9 -10   1  185.99   37.70
   9 -10   2  282.87   49.84
   9 -10   3  783.41   83.86
  -9  10  -3  767.94   87.19
  -9  10  -4  327.63   59.37
  -9  10  -5   76.02   33.49
  -9  10  -6  142.20   42.76
   9  -9  -5  -19.49   17.56
   9  -9  -4   34.00   19.87
   9  -9  -3  150.08   42.93
   9  -9  -3   76.95   26.92
   9  -9  -2  107.17   25.92
   9  -9  -2   73.51   25.40
   9  -9  -2  121.37   37.67
   9  -9  -2   88.47   39.93
   9  -9  -1  212.07   49.99
   9  -9  -1  292.07   68.27
   9  -9  -1  204.58   37.42
   9  -9   0   13.86   18.69
   9  -9   0    4.73   15.06
   9  -9   0   -2.20   10.33
   9  -9   1  270.67   55.44
   9  -9   1  323.82   49.39
  -9   9  -2  524.90   71.93
   9  -9   2  421.48   68.51
   9  -9   2  372.39   78.50
   9  -9   2  541.04   65.27
  -9   9  -3  137.37   40.64
   9  -9   3  126.79   37.38
   9  -9   3  195.55   63.09
   9  -9   3  128.02   33.05
  -9   9  -4  444.60   69.83
   9  -9   4  364.59   63.83
   9  -9   4  393.26   86.72
   9  -9   4  448.03   62.02
   9  -9   5   82.21   30.27
  -9   9  -5  190.17   48.55
  -9   9  -6  430.73   76.06
   9  -8  -7   58.80   28.50
   9  -8  -7   46.73   24.00
   9  -8  -6   36.61   23.05
   9  -8  -6    5.88    9.87
   9  -8  -5   30.60   23.03
   9  -8  -5   13.82   12.30
   9  -8  -4   10.52   12.31
   9  -8  -4   -1.22    8.82
   9  -8  -4   -3.61   13.35
   9  -8  -3  122.57   25.47
   9  -8  -3  138.58   33.87
   9  -8  -3  142.67   38.95
   9  -8  -3   67.18   26.13
   9  -8  -2   43.71   16.82
   9  -8  -2   51.91   19.19
   9  -8  -2   65.93   28.76
   9  -8  -2   40.09   23.33
   9  -8  -1    6.04   14.38
   9  -8  -1   41.53   19.85
   9  -8  -1   17.53   13.14
   9  -8   0   -0.50   10.06
   9  -8   0   -6.67   18.93
   9  -8   0    8.37   10.13
  -9   8  -1  117.45   34.53
   9  -8   1   67.00   27.01
   9  -8   1  133.37   48.46
   9  -8   1  161.71   33.25
  -9   8  -2  128.41   35.29
   9  -8   2  147.67   40.47
   9  -8   2  236.57   61.83
   9  -8   2  193.40   37.42
  -9   8  -3  186.00   44.17
   9  -8   3  100.05   32.84
   9  -8   3  136.99   46.67
   9  -8   3  129.26   31.84
  -9   8  -4   22.72   17.49
   9  -8   4   13.42   14.17
   9  -8   4   50.74   21.70
   9  -8   5  186.44   43.88
  -9   8  -5  313.61   62.96
   9  -8   6  506.58   71.48
  -9   8  -6  434.64   77.17
   9  -8   7   92.73   30.64
   9  -7  -8  350.03   68.21
   9  -7  -8  282.25   50.70
   9  -7  -7   73.24   29.53
   9  -7  -7   96.97   30.88
   9  -7  -6   34.02   22.06
   9  -7  -6    6.81   17.11
   9  -7  -6   17.47   17.47
   9  -7  -5  129.38   34.25
   9  -7  -5  127.44   35.07
   9  -7  -5  187.21   51.80
   9  -7  -4  146.08   27.05
   9  -7  -4   71.03   24.57
   9  -7  -4  162.19   39.05
   9  -7  -4  125.42   41.45
   9  -7  -3   25.78   12.39
   9  -7  -3   30.11   15.34
   9  -7  -3   18.25   17.31
   9  -7  -3   12.58   18.71
   9  -7  -2   16.20   11.00
   9  -7  -2    5.87    8.80
   9  -7  -2   -2.91    9.42
   9  -7  -2   16.55   15.01
   9  -7  -1  159.55   40.25
   9  -7  -1  151.92   46.99
   9  -7  -1  166.78   32.06
   9  -7   0  171.01   41.24
   9  -7   0  108.36   39.40
  -9   7  -1  143.30   37.53
   9  -7   1  112.69   33.51
   9  -7   1  106.40   43.67
   9  -7   1  113.20   27.84
  -9   7  -2   34.17   18.03
   9  -7   2   30.88   19.83
   9  -7   2   16.46   20.96
   9  -7   2   31.72   16.12
  -9   7  -3   16.34   15.56
   9  -7   3   28.04   19.03
   9  -7   3   10.57   16.24
   9  -7   3   -3.89    8.26
  -9   7  -4   45.72   26.71
   9  -7   4   38.51   18.61
   9  -7   4   42.00   34.17
   9  -7   4   15.36   13.82
   9  -7   5  161.35   37.38
   9  -7   5  193.49   42.70
  -9   7  -5  296.14   62.53
   9  -7   6   65.34   25.12
  -9   7  -6   62.46   35.06
   9  -7   7   17.74   13.12
   9  -7   8  105.13   31.82
   9  -6  -9  279.85   59.40
   9  -6  -9  282.36   50.91
   9  -6  -8  321.99   63.38
   9  -6  -8  426.67   61.95
   9  -6  -7   65.77   27.46
   9  -6  -7  100.70   37.36
   9  -6  -7   92.55   30.46
   9  -6  -6  148.71   39.59
   9  -6  -6  197.69   43.15
   9  -6  -6   67.00   27.71
   9  -6  -5  242.52   33.03
   9  -6  -5  238.69   44.62
   9  -6  -5  196.87   42.68
   9  -6  -5  224.46   52.70
   9  -6  -4  242.09   33.88
   9  -6  -4  223.99   39.08
   9  -6  -4  231.67   46.40
   9  -6  -4  278.41   58.00
   9  -6  -3   63.21   18.55
   9  -6  -3   82.50   22.82
   9  -6  -3   74.83   24.79
   9  -6  -3   85.45   33.78
   9  -6  -2    5.01    8.27
   9  -6  -2   -8.58    7.57
   9  -6  -2   -5.77    9.58
   9  -6  -2   -7.09   10.11
   9  -6  -1  362.36   58.19
   9  -6  -1  494.46   79.48
   9  -6  -1  381.54   47.49
  -9   6   0   27.00   21.33
   9  -6   0   35.42   18.40
   9  -6   0   39.37   23.06
   9  -6   0   27.54   16.92
  -9   6  -1   42.87   23.03
   9  -6   1   60.87   24.89
   9  -6   1   29.51   21.24
   9  -6   1   49.89   17.39
  -9   6  -2   -1.67   10.75
   9  -6   2   17.04   13.71
   9  -6   2   13.58   15.89
   9  -6   2   34.97   16.60
  -9   6  -3   23.53   17.86
   9  -6   3    6.35    9.94
   9  -6   3   -3.29   19.79
   9  -6   3    4.69   11.75
  -9   6  -4  157.50   44.10
   9  -6   4  218.36   43.82
   9  -6   4  147.84   46.48
   9  -6   4  191.46   39.50
   9  -6   5    6.69    8.19
  -9   6  -5   47.54   26.28
   9  -6   6   54.23   22.87
   9  -6   7   -0.43   12.75
   9  -5 -10  239.13   46.18
   9  -5 -10  183.77   52.65
   9  -5  -9  426.96   60.46
   9  -5  -9  305.66   63.17
   9  -5  -8   77.18   25.02
   9  -5  -8   74.13   27.05
   9  -5  -8   81.28   27.74
   9  -5  -7   79.42   25.40
   9  -5  -7   61.14   24.07
   9  -5  -7   76.73   27.13
   9  -5  -6  652.25   51.84
   9  -5  -6  567.52   71.00
   9  -5  -6  625.44   84.68
   9  -5  -6  564.43   69.15
   9  -5  -5  498.93   47.71
   9  -5  -5  402.52   59.23
   9  -5  -5  364.33   64.06
   9  -5  -5  463.21   57.59
   9  -5  -4  403.42   44.30
   9  -5  -4  309.95   43.19
   9  -5  -4  370.18   56.54
   9  -5  -4  468.82   73.09
   9  -5  -3   54.80   17.03
   9  -5  -3   73.61   19.29
   9  -5  -3  128.31   34.46
   9  -5  -3   78.79   32.31
   9  -5  -2  105.89   24.34
   9  -5  -2  109.50   20.43
   9  -5  -2  104.81   30.03
   9  -5  -2   98.64   34.64
  -9   5   1  275.44   50.92
   9  -5  -1  237.57   46.67
   9  -5  -1  211.76   51.95
   9  -5  -1  240.30   37.97
  -9   5   0  420.69   63.79
   9  -5   0  387.88   58.81
   9  -5   0  526.54   80.59
   9  -5   0  397.94   49.52
  -9   5  -1   -2.42   14.73
   9  -5   1   16.16   11.65
   9  -5   1   34.12   23.89
   9  -5   1   21.84   14.24
  -9   5  -2   12.05   18.35
   9  -5   2   24.06   17.30
   9  -5   2   14.90   11.65
   9  -5   2   -3.31    6.92
  -9   5  -3  224.88   51.64
   9  -5   3  305.42   51.31
   9  -5   3  367.67   69.05
   9  -5   3  267.56   44.57
   9  -5   4   66.04   24.15
   9  -5   4   65.82   32.47
   9  -5   4   18.09   12.12
   9  -5   5   20.33   12.91
   9  -5   5   53.67   23.18
  -9   5  -5   37.32   26.77
   9  -5   6   45.80   21.26
   9  -5   7   76.34   26.01
   9  -4 -11  103.40   39.25
   9  -4 -10  109.20   31.36
   9  -4 -10   48.09   25.48
   9  -4  -9   96.41   29.23
   9  -4  -9  104.68   34.83
   9  -4  -9   96.67   36.03
   9  -4  -8   75.74   26.29
   9  -4  -8   88.21   30.36
   9  -4  -8   65.28   28.99
   9  -4  -7  215.09   28.08
   9  -4  -7  252.59   45.66
   9  -4  -7  232.08   51.13
   9  -4  -7  173.70   40.20
   9  -4  -6  368.17   38.72
   9  -4  -6  380.85   56.99
   9  -4  -6  379.75   63.35
   9  -4  -6  311.06   49.02
   9  -4  -5  339.23   39.06
   9  -4  -5  342.39   46.99
   9  -4  -5  436.53   61.20
   9  -4  -5  377.45   63.60
   9  -4  -4  200.25   30.68
   9  -4  -4  148.06   27.36
   9  -4  -4  109.60   30.43
   9  -4  -4  165.81   42.80
   9  -4  -3   52.91   21.43
   9  -4  -3   49.61   23.54
   9  -4  -3   43.39   15.55
   9  -4  -2  736.94   79.55
   9  -4  -2  756.82   92.27
   9  -4  -2  704.92   62.82
  -9   4   1  378.37   60.26
   9  -4  -1  401.59   58.87
   9  -4  -1  440.95   71.95
   9  -4  -1  403.52   48.66
  -9   4   0   98.83   31.59
   9  -4   0  126.61   33.36
   9  -4   0  143.09   43.05
   9  -4   0  124.46   28.49
  -9   4  -1  170.74   42.19
   9  -4   1  102.91   30.97
   9  -4   1   44.24   18.81
   9  -4   1  115.14   28.56
  -9   4  -2  200.34   49.56
   9  -4   2  132.64   33.48
   9  -4   2  150.15   42.78
   9  -4   2  144.12   32.64
  -9   4  -3  273.49   55.88
   9  -4   3  224.75   42.88
   9  -4   3  219.02   50.21
   9  -4   3  262.46   43.80
  -9   4  -4  130.47   41.66
   9  -4   4  130.52   32.96
   9  -4   4  146.89   43.97
   9  -4   4  135.62   32.56
   9  -4   5   14.09   11.88
  -9   4  -5    5.63   18.28
   9  -4   5   21.89   16.81
   9  -4   6   87.63   27.40
   9  -4   7   50.32   22.42
   9  -3 -11  134.04   31.42
   9  -3 -10  122.32   31.77
   9  -3  -9   35.65   21.68
   9  -3  -9   47.56   19.85
   9  -3  -8   31.39   19.53
   9  -3  -8   18.79   16.70
   9  -3  -7  180.69   42.90
   9  -3  -7  300.61   33.57
   9  -3  -7  262.51   47.52
   9  -3  -6  394.54   61.85
   9  -3  -6  524.84   65.52
   9  -3  -6  494.18   45.40
   9  -3  -5   53.04   15.36
   9  -3  -5   79.33   29.17
   9  -3  -5   81.25   27.33
   9  -3  -4    1.88    5.25
   9  -3  -4   15.83    6.86
   9  -3  -4   -8.15   15.81
   9  -3  -3  368.09   54.80
   9  -3  -3  349.84   42.47
   9  -3  -3  350.13   59.48
   9  -3  -2  750.58   64.58
  -9   3   2  827.53   87.87
   9  -3  -2  763.44   79.65
   9  -3  -2  711.92   88.22
  -9   3   1  200.76   44.49
   9  -3  -1  182.71   37.71
   9  -3  -1  229.07   50.67
   9  -3  -1  209.51   34.54
  -9   3   0   14.96   11.02
   9  -3   0   31.96   17.84
   9  -3   0   52.80   26.42
   9  -3   0   37.68   16.33
  -9   3  -1  245.04   51.12
   9  -3   1  256.68   44.67
   9  -3   1  159.67   39.74
   9  -3   1  174.75   33.73
  -9   3  -2  152.26   42.44
   9  -3   2  139.55   32.76
   9  -3   2  164.24   50.34
   9  -3   2  161.64   34.14
  -9   3  -3  711.77   92.65
   9  -3   3  591.69   69.05
   9  -3   3  493.50   73.83
   9  -3   3  624.36   67.61
  -9   3  -4   -6.07   14.79
   9  -3   4   27.70   19.68
   9  -3   4    1.55    9.93
   9  -3   4   20.61   12.84
   9  -3   5   65.25   23.79
  -9   3  -5   21.56   27.15
   9  -3   5   22.24   14.73
   9  -3   6  340.84   51.86
   9  -2 -11  113.45   30.15
   9  -2 -10   88.11   25.66
   9  -2 -10   95.22   30.49
   9  -2  -9   20.54   14.57
   9  -2  -9    8.08   14.47
   9  -2  -8  414.29   56.96
   9  -2  -8  420.38   63.34
   9  -2  -7  364.39   57.48
   9  -2  -7  431.72   58.61
   9  -2  -7  484.62   44.21
   9  -2  -6    8.43    6.82
   9  -2  -6    0.18    8.15
   9  -2  -6   11.91   13.41
   9  -2  -5  342.45   55.24
   9  -2  -5  373.42   54.31
   9  -2  -5  341.31   39.42
   9  -2  -4  176.12   29.82
   9  -2  -4   89.84   29.72
   9  -2  -4  133.43   33.13
   9  -2  -3  458.18   67.40
   9  -2  -3  457.46   60.13
   9  -2  -3  372.65   44.07
  -9   2   2  242.69   48.05
   9  -2  -2  254.84   44.92
   9  -2  -2  304.08   53.97
   9  -2  -2  242.67   36.84
  -9   2   1   -7.91   17.90
   9  -2  -1   -0.84   10.46
   9  -2  -1   -4.45   11.23
   9  -2  -1   -2.90    8.19
  -9   2   0   85.45   30.03
   9  -2   0   79.79   25.76
   9  -2   0  114.43   34.66
   9  -2   0   76.29   22.40
  -9   2  -1  194.92   49.39
   9  -2   1  159.50   32.49
   9  -2   1  105.71   34.80
   9  -2   1  193.00   39.10
   9  -2   2  597.96   63.50
  -9   2  -2  553.94   80.69
   9  -2   2  641.95   70.77
   9  -2   2  580.48   75.96
  -9   2  -3   14.75   19.80
   9  -2   3   23.25   15.34
   9  -2   3  -24.99   16.80
   9  -2   3    7.98    9.70
  -9   2  -4    6.67   11.93
   9  -2   4   14.76   16.30
   9  -2   5  454.40   59.47
   9  -2   5  476.17   60.70
  -9   2  -5  438.07   77.40
   9  -2   6   37.80   17.32
   9  -1 -12   76.87   24.00
   9  -1 -11   43.15   20.67
   9  -1 -10   45.86   19.43
   9  -1 -10   80.50   29.13
   9  -1  -9  377.04   53.45
   9  -1  -9  348.26   57.26
   9  -1  -8  312.68   49.28
   9  -1  -8  228.10   45.76
   9  -1  -7  148.82   34.80
   9  -1  -7  250.29   31.92
   9  -1  -7  211.87   40.39
   9  -1  -6  121.53   22.87
   9  -1  -6  162.41   35.45
   9  -1  -6  125.83   33.63
   9  -1  -5    2.65    5.04
   9  -1  -5   13.36   10.92
   9  -1  -5   31.06   19.83
   9  -1  -4  634.41   74.77
   9  -1  -4  668.79   57.75
   9  -1  -4  619.66   70.37
   9  -1  -3  593.76   74.17
   9  -1  -3  589.52   67.43
   9  -1  -3  457.77   49.38
  -9   1   2   14.25   11.76
   9  -1  -2   46.35   20.12
   9  -1  -2   29.88   19.32
   9  -1  -2   30.44   14.88
  -9   1   1   17.06   20.04
   9  -1  -1   23.90   14.04
   9  -1  -1   14.46   16.12
   9  -1  -1   24.38   14.01
   9  -1   0  525.17   57.05
   9  -1   0  534.87   65.01
   9  -1   0  428.21   63.57
  -9   1   0  553.89   76.61
   9  -1   1  447.08   53.72
  -9   1  -1  503.36   74.79
   9  -1   1  400.89   55.68
   9  -1   1  481.00   66.48
  -9   1  -2  126.14   41.56
   9  -1   2   55.01   21.07
   9  -1   2   99.79   30.76
   9  -1   2   65.07   22.08
   9  -1   3    5.13   11.60
   9  -1   3   17.09   17.56
   9  -1   3   10.23   15.04
   9  -1   4   39.65   20.05
  -9   1  -4   47.74   30.24
   9  -1   4   30.52   16.95
   9  -1   5   70.32   23.14
   9   0 -12   26.13   15.40
   9   0 -11  152.90   33.46
   9   0 -11  176.48   42.83
   9   0 -10   21.07   15.33
   9   0 -10   17.49   14.99
   9   0  -9  252.81   43.96
   9   0  -9  172.75   39.31
   9   0  -8  242.84   42.48
   9   0  -8  178.11   38.97
   9   0  -7   77.00   18.89
   9   0  -7   74.12   22.71
   9   0  -7   69.27   24.17
   9   0  -6  162.52   26.59
   9   0  -6  229.87   41.90
   9   0  -6  173.96   37.37
   9   0  -5  559.90   68.53
   9   0  -5  611.12   54.92
   9   0  -5  570.53   66.58
   9   0  -4  493.02   65.57
   9   0  -4  533.25   64.80
   9   0  -4  521.84   51.71
   9   0  -3  109.42   28.67
   9   0  -3  152.22   37.60
   9   0  -3  202.21   33.46
  -9   0   2  189.15   41.37
   9   0  -2  184.52   32.54
   9   0  -2  231.23   45.46
   9   0  -2  192.95   37.45
  -9   0   1  630.43   79.80
   9   0  -1  617.34   68.41
   9   0  -1  664.35   63.99
   9   0  -1  610.88   74.81
   9   0   0  361.46   47.56
  -9   0   0  394.44   63.72
   9   0   0  366.07   52.74
   9   0   0  356.04   56.22
  -9   0  -1  161.87   42.11
   9   0   1  183.76   38.41
   9   0   1  146.41   35.10
   9   0   1  140.52   31.14
  -9   0  -2   10.04   18.23
   9   0   2   20.74   12.83
   9   0   2   21.82   13.43
   9   0   2   49.33   18.08
   9   0   3   51.56   21.23
  -9   0  -3  130.38   41.41
   9   0   3  138.43   32.33
   9   0   4  320.12   49.08
  -9   0  -4  249.94   57.21
   9   0   4  262.80   44.35
   9   0   5  152.33   34.07
   9   1 -13   28.73   15.44
   9   1 -12   29.67   14.13
   9   1 -11    7.86   11.91
   9   1 -10  151.79   33.49
   9   1  -9   57.06   21.89
   9   1  -8   75.01   25.21
   9   1  -8  105.33   30.16
   9   1  -7   36.10   13.00
   9   1  -7    6.26   11.98
   9   1  -7    3.34    8.28
   9   1  -6  116.12   23.10
   9   1  -6  145.23   35.00
   9   1  -6  168.02   35.83
   9   1  -5  405.34   55.77
   9   1  -5  281.93   46.90
   9   1  -5  344.21   41.50
   9   1  -4  217.93   41.10
   9   1  -4  237.41   43.32
   9   1  -4  180.14   30.12
   9   1  -3  241.82   42.21
   9   1  -3  233.36   44.45
   9   1  -3  252.52   37.35
  -9  -1   2  155.13   38.45
   9   1  -2  124.28   26.83
   9   1  -2  174.18   38.49
   9   1  -2  178.94   37.71
   9   1  -1  547.61   58.25
   9   1  -1  628.74   69.04
   9   1  -1  484.05   63.11
  -9  -1   1  662.78   81.07
   9   1   0  463.64   55.16
  -9  -1   0  404.10   65.90
   9   1   0  503.27   61.75
   9   1   0  435.36   59.24
  -9  -1  -1  278.64   55.53
   9   1   1  348.87   51.23
   9   1   1  230.20   41.65
   9   1   1  296.35   44.85
   9   1   2   84.22   24.99
   9   1   2   51.15   18.96
  -9  -1  -2   43.37   23.90
   9   1   3  459.72   59.08
   9   1   3  453.52   58.25
   9   1   3  514.20  115.45
  -9  -1  -3  408.54   71.82
   9   1   4  477.49   60.34
   9   2 -13   52.62   21.34
   9   2 -12    5.32    9.11
   9   2 -11   -0.29    9.67
   9   2 -10   77.52   25.25
   9   2 -10   23.70   22.23
   9   2  -9   19.77   11.41
   9   2  -9   47.33   34.23
   9   2  -8   -4.10   11.72
   9   2  -8   -7.23   16.36
   9   2  -7    5.45   13.21
   9   2  -6   90.98   22.52
   9   2  -6  109.20   29.66
   9   2  -6  144.77   33.43
   9   2  -5   97.47   22.51
   9   2  -5  104.75   28.47
   9   2  -5  113.10   30.90
   9   2  -4   49.14   18.89
   9   2  -4   68.32   23.03
   9   2  -4  118.24   30.28
   9   2  -3    9.51    8.10
   9   2  -3   -7.18    8.85
   9   2  -3    6.07   10.34
   9   2  -2  337.12   45.42
  -9  -2   2  469.61   66.49
   9   2  -2  331.89   51.32
   9   2  -2  395.16   55.92
  -9  -2   1  391.32   62.68
   9   2  -1  327.74   46.45
   9   2  -1  356.75   52.00
   9   2  -1  362.35   52.06
   9   2   0  447.06  101.19
  -9  -2   0  435.53   67.46
   9   2   0  260.40   41.92
   9   2   0  325.55   49.33
   9   2   0  404.42   54.65
   9   2   1  190.30   35.84
  -9  -2  -1  146.54   40.44
   9   2   1  139.70   32.71
   9   2   2  138.61   31.48
  -9  -2  -2  233.02   52.09
   9   2   2  176.46   38.12
   9   2   2  239.54   77.93
  -9  -2  -3  595.72   88.15
   9   2   3  517.14   62.37
   9   2   4  217.14   40.61
   9   3 -13   60.30   21.93
   9   3 -12   28.13   15.64
   9   3 -11  212.57   40.50
   9   3 -10   88.76   42.98
   9   3 -10  122.71   31.42
   9   3  -9  135.44   50.29
   9   3  -9   27.54   15.23
   9   3  -8   19.57   14.11
   9   3  -8    6.15    6.54
   9   3  -7   49.86   33.61
   9   3  -7   24.50   14.15
   9   3  -6   68.88   24.68
   9   3  -6   48.76   21.51
   9   3  -5   -1.71    6.36
   9   3  -5    2.46    9.39
   9   3  -5    4.15    7.53
   9   3  -5   29.43   29.62
   9   3  -4  102.92   23.98
   9   3  -4   95.34   27.32
   9   3  -4   95.78   27.57
   9   3  -4  107.91   51.86
   9   3  -3  135.15   29.15
   9   3  -3  239.77   42.30
   9   3  -3  261.27   44.78
   9   3  -3  132.67   60.37
   9   3  -2  229.50   76.80
  -9  -3   2  151.09   37.61
   9   3  -2  260.61   40.27
   9   3  -2  167.79   35.67
   9   3  -2  221.55   40.94
   9   3  -1   26.87   26.36
  -9  -3   1   62.51   23.26
   9   3  -1   43.03   18.64
   9   3  -1   33.04   16.04
   9   3  -1   37.92   18.71
   9   3   0    0.80    8.20
  -9  -3   0   11.71   15.06
   9   3   0   13.63   35.31
   9   3   0    2.87   10.10
   9   3   1   62.63   22.45
  -9  -3  -1   68.91   29.19
   9   3   1   13.18   11.86
  -9  -3  -2  560.51   83.12
   9   3   2  505.25   63.14
   9   3   3  255.83   44.78
   9   4 -13  140.82   33.80
   9   4 -12  389.05   56.40
   9   4 -11  400.49   86.80
   9   4 -11  254.24   45.18
   9   4 -10  110.61   46.71
   9   4 -10  166.62   36.74
   9   4  -9  -31.99   27.43
   9   4  -9   46.16   20.40
   9   4  -8   81.95   44.76
   9   4  -8  146.72   34.97
   9   4  -7  125.71   69.86
   9   4  -7  133.03   33.52
   9   4  -6    8.94   19.61
   9   4  -6   97.73   28.57
   9   4  -5    1.93    8.60
   9   4  -5    7.05    9.41
   9   4  -5   13.85   23.78
   9   4  -4   -7.97    5.52
   9   4  -4    7.80   11.21
   9   4  -3    5.63   11.16
   9   4  -3   18.32   11.82
   9   4  -3   20.89   17.51
   9   4  -3   48.48   46.81
   9   4  -2   11.61   30.32
  -9  -4   2    5.38    7.96
   9   4  -2    0.95    6.23
   9   4  -2   16.31   14.64
   9   4  -2    0.07    8.71
   9   4  -1   11.76   11.83
  -9  -4   1    3.89    9.31
   9   4  -1    8.40   21.38
   9   4  -1   27.42   16.11
   9   4   0    3.23   11.62
  -9  -4   0   -2.86   10.55
   9   4   0    8.71    8.71
   9   4   0   -0.84   26.81
  -9  -4  -1   96.28   32.12
   9   4   1  100.13   29.79
  -9  -4  -2   47.85   26.50
   9   4   2  113.91   31.36
   9   5 -12  309.53   51.82
   9   5 -11  415.08   59.73
   9   5 -11  514.61  100.04
   9   5 -10  268.12   47.94
   9   5 -10  355.88   88.97
   9   5  -9  558.12   69.60
   9   5  -9  588.97  116.67
   9   5  -8  377.30   56.42
   9   5  -8  484.11  108.14
   9   5  -7  273.48   48.11
   9   5  -7  461.01  103.80
   9   5  -6    9.01   18.42
   9   5  -6   64.63   49.22
   9   5  -5   24.70   17.91
   9   5  -5   30.83   15.61
   9   5  -5   37.11   28.75
   9   5  -4  321.56   51.61
   9   5  -4  336.72   49.56
   9   5  -4  305.10   90.33
   9   5  -3   33.25   17.85
   9   5  -3   11.98   29.85
  -9  -5   2   38.35   20.76
   9   5  -2   69.65   24.57
  -9  -5   1    3.49   14.41
   9   5  -1    7.99    9.22
  -9  -5   0   16.82   13.05
   9   5   0   32.98   18.33
  -9  -5  -1   -2.85   15.64
   9   5   1   44.10   19.77
   9   6 -11  390.44   59.72
   9   6 -11  256.02   72.18
   9   6 -10  163.99   38.79
   9   6 -10   99.99   46.72
   9   6  -9  394.79   58.83
   9   6  -9  426.18  101.75
   9   6  -8  474.71   64.83
   9   6  -8  671.69  132.97
   9   6  -7  528.11   69.30
   9   6  -7  470.06  116.43
   9   6  -6  355.55   56.48
   9   6  -6  336.75   94.54
   9   6  -5  232.61   45.16
   9   6  -5  206.48   90.10
   9   6  -5  147.02   32.94
   9   6  -4  507.23  124.38
   9   6  -4  392.65   59.17
   9   6  -3  332.71   54.01
   9   6  -2   24.98   19.62
  -9  -6   1   10.74   15.05
  -9  -6   0   68.89   27.08
   9   7 -11   59.41   34.43
   9   7 -10  217.51   72.70
   9   7  -9  206.29   73.41
   9   7  -8  332.38   93.92
   9   7  -7  267.90   89.76
   9   7  -6  451.82  124.35
   9   8 -11   70.74   47.22
   9   8 -10   94.25   42.28
   9   8  -9  118.42   59.00
   9   8  -8  133.79   66.28
  10 -10  -1   99.10   28.02
  10 -10   0   87.57   27.57
  10  -9  -2   -3.37    8.26
  10  -9  -1   31.60   18.28
  10  -9   0  237.55   43.24
  10  -9   1  129.49   33.17
 -10   9  -2  278.54   56.51
  10  -8  -3   -9.44   10.52
  10  -8  -2   18.88   12.58
  10  -8  -1   19.90   15.53
  10  -8   0   18.54   16.40
 -10   8  -1   27.78   22.73
  10  -8   1   69.81   23.83
 -10   8  -2   62.55   27.02
  10  -8   2   88.97   27.66
 -10   8  -3   39.80   22.40
  10  -7  -4  104.85   33.97
  10  -7  -4  129.23   28.25
  10  -7  -3    5.50    9.61
  10  -7  -3    4.37    8.71
  10  -7  -2   44.91   22.34
  10  -7  -2   28.53   21.38
  10  -7  -2   40.00   17.50
  10  -7  -1   50.41   26.65
  10  -7  -1   43.25   23.91
  10  -7  -1   63.09   23.97
  10  -7   0   33.06   18.22
  10  -7   0   14.00   19.97
  10  -7   0    6.00   14.11
 -10   7  -1   16.35   20.16
  10  -7   1    6.06   11.84
  10  -7   1    6.05   19.33
  10  -7   1    2.94    8.53
 -10   7  -2   26.57   24.95
  10  -7   2   17.13   16.05
  10  -7   2   -2.49   18.23
  10  -7   2    6.06    8.63
  10  -7   3   -0.51   10.46
  10  -7   3   27.17   24.63
 -10   7  -3   24.64   19.80
  10  -7   4   72.88   39.75
  10  -6  -7  118.29   35.74
  10  -6  -6  240.54   49.81
  10  -6  -5  556.85   75.74
  10  -6  -5  503.42   52.25
  10  -6  -4  231.93   47.87
  10  -6  -4  178.39   51.51
  10  -6  -4  189.38   32.69
  10  -6  -3   37.36   20.45
  10  -6  -3   15.52   19.62
  10  -6  -3   23.08   12.80
  10  -6  -2  133.00   38.88
  10  -6  -2   42.86   24.25
  10  -6  -2  103.59   26.10
  10  -6  -1   16.62   14.29
  10  -6  -1   -8.28   11.88
  10  -6  -1   12.09   10.95
 -10   6   0  103.79   35.17
  10  -6   0   41.58   21.29
  10  -6   0   56.60   33.89
  10  -6   0   52.95   18.92
 -10   6  -1    9.63   10.77
  10  -6   1   20.95   14.48
  10  -6   1   -2.14   12.58
  10  -6   1    0.50    8.98
 -10   6  -2    3.12   13.73
  10  -6   2   -8.47    7.40
  10  -6   2  -11.71   16.02
  10  -6   2    8.46   12.54
 -10   6  -3   22.40   19.99
  10  -6   3    6.51   11.29
  10  -6   3   32.29   26.02
  10  -6   3   43.59   21.49
  10  -6   4   28.23   20.77
  10  -6   4   16.90   16.30
  10  -6   5   -3.57    8.27
  10  -5  -9  277.88   51.07
  10  -5  -8  151.35   37.42
  10  -5  -7  252.71   48.96
  10  -5  -6  510.40   81.57
  10  -5  -6  693.58   58.43
  10  -5  -6  730.96   84.40
  10  -5  -5  457.83   78.89
  10  -5  -5  636.74   79.27
  10  -5  -5  598.53   56.27
  10  -5  -4  117.13   25.78
  10  -5  -4  100.78   35.54
  10  -5  -4  173.31   42.02
  10  -5  -3  441.64   78.38
  10  -5  -3  424.77   64.07
  10  -5  -3  432.41   50.05
  10  -5  -2  399.25   63.13
  10  -5  -2  450.24   78.84
  10  -5  -2  366.75   48.02
  10  -5  -1  270.86   51.44
  10  -5  -1  301.37   64.27
  10  -5  -1  378.79   49.93
 -10   5   0  174.02   44.83
  10  -5   0  182.21   42.77
  10  -5   0  165.15   49.09
  10  -5   0  187.97   35.31
 -10   5  -1   56.45   23.14
  10  -5   1   42.29   20.46
  10  -5   1   15.35   10.62
  10  -5   1   44.06   18.53
 -10   5  -2   -6.27   10.09
  10  -5   2   11.50   16.30
  10  -5   2   17.84   18.34
  10  -5   2    9.99   11.21
 -10   5  -3   75.85   39.94
  10  -5   3   41.79   19.82
  10  -5   3   48.70   19.73
  10  -5   3   24.90   16.45
  10  -5   4   -5.01   20.98
  10  -5   4    6.59    7.06
  10  -5   5   44.75   23.49
  10  -5   6    0.84    6.13
  10  -4 -10   90.70   30.52
  10  -4  -9   -9.25   17.50
  10  -4  -8  161.17   39.10
  10  -4  -7  197.92   48.80
  10  -4  -7  183.50   41.82
  10  -4  -6  667.74   89.55
  10  -4  -6  771.09   85.39
  10  -4  -6  650.97   57.66
  10  -4  -5  212.08   33.67
  10  -4  -5  172.52   41.54
  10  -4  -5  305.61   59.68
  10  -4  -4  292.56   53.36
  10  -4  -4  380.60   45.76
  10  -4  -4  395.06   69.41
  10  -4  -3  842.91   90.20
  10  -4  -3  831.03   71.11
  10  -4  -3  965.33  109.80
  10  -4  -2  606.13   75.57
  10  -4  -2  560.14   59.27
  10  -4  -2  553.94   85.19
  10  -4  -1  575.24   62.09
 -10   4   1  762.13   91.70
  10  -4  -1  582.27   74.48
  10  -4  -1  642.61   93.36
 -10   4   0   86.11   33.41
  10  -4   0   78.59   28.50
  10  -4   0   60.23   27.35
  10  -4   0   89.24   24.78
 -10   4  -1  342.63   64.43
  10  -4   1  284.44   52.58
  10  -4   1  290.34   62.10
  10  -4   1  330.98   49.79
 -10   4  -2  388.17   70.48
  10  -4   2  426.99   63.32
  10  -4   2  454.02   77.75
  10  -4   2  449.33   58.72
 -10   4  -3  133.35   42.05
  10  -4   3  145.93   36.10
  10  -4   3  181.58   51.87
  10  -4   3  194.01   42.28
  10  -4   4   38.91   27.04
  10  -4   4    6.67   12.34
  10  -4   5  102.95   31.27
  10  -4   6   12.91   12.13
  10  -3 -10   14.08   12.71
  10  -3  -9    3.98    9.00
  10  -3  -8   19.64   15.00
  10  -3  -7   57.64   16.30
  10  -3  -7   46.09   25.09
  10  -3  -7   92.37   29.60
  10  -3  -6  173.96   29.46
  10  -3  -6  130.42   38.18
  10  -3  -6  167.96   39.73
  10  -3  -5  122.03   25.41
  10  -3  -5   88.27   30.11
  10  -3  -5  101.82   31.96
  10  -3  -4  235.00   35.94
  10  -3  -4  265.44   54.58
  10  -3  -4  304.35   52.78
  10  -3  -3  289.72   58.63
  10  -3  -3  422.38   50.61
  10  -3  -3  277.46   51.89
  10  -3  -2  342.13   65.46
  10  -3  -2  333.16   55.80
  10  -3  -2  452.94   53.16
 -10   3   1  382.43   66.25
  10  -3  -1  334.67   46.45
  10  -3  -1  419.03   62.42
  10  -3  -1  279.71   58.60
 -10   3   0  738.41   93.56
  10  -3   0  617.98   88.70
  10  -3   0  680.95   79.54
  10  -3   0  633.08   66.87
  10  -3   1  434.78   56.71
 -10   3  -1  465.74   75.11
  10  -3   1  532.73   69.68
  10  -3   1  606.54   87.24
 -10   3  -2  248.54   57.12
  10  -3   2  300.13   51.92
  10  -3   2  338.38   64.88
  10  -3   2  277.16   46.02
  10  -3   3  331.69   55.20
  10  -3   3  327.10   65.45
  10  -3   4  197.55   42.89
  10  -3   5   45.22   22.31
  10  -2 -11  -68.55   24.34
  10  -2 -10   67.84   24.44
  10  -2  -9    7.95   10.41
  10  -2  -8   68.22   26.37
  10  -2  -8   80.44   31.83
  10  -2  -8   54.01   15.75
  10  -2  -7   53.93   26.24
  10  -2  -7   80.59   31.82
  10  -2  -7   92.05   20.34
  10  -2  -6   56.71   24.14
  10  -2  -6   19.94   15.54
  10  -2  -6   30.26   12.40
  10  -2  -5    8.08   12.26
  10  -2  -5   23.90   17.19
  10  -2  -5   -2.18    6.47
  10  -2  -4   95.02   29.22
  10  -2  -4  130.25   37.50
  10  -2  -4  144.89   29.15
  10  -2  -3  174.12   39.14
  10  -2  -3  158.04   42.61
  10  -2  -3  169.27   31.40
 -10   2   2  131.16   39.74
  10  -2  -2  189.70   42.84
  10  -2  -2  181.83   45.29
  10  -2  -2  139.89   30.92
 -10   2   1  169.70   44.28
  10  -2  -1  186.92   41.92
  10  -2  -1  168.82   44.20
  10  -2  -1  184.57   34.10
 -10   2   0  202.23   50.48
  10  -2   0  251.86   42.07
  10  -2   0  185.14   41.27
  10  -2   0  208.15   50.17
 -10   2  -1  250.53   56.31
  10  -2   1  388.86   67.53
  10  -2   1  380.38   57.95
  10  -2   1  454.16   58.00
 -10   2  -2  394.46   71.41
  10  -2   2  549.85   69.03
  10  -2   2  421.53   57.33
  10  -2   2  435.31   70.21
  10  -2   3  118.91   31.67
  10  -2   3  190.41   47.31
  10  -2   4  339.05   54.31
  10  -2   5  327.05   53.32
  10  -1 -11   36.71   17.69
  10  -1 -10   23.28   15.22
  10  -1  -9   77.92   27.90
  10  -1  -8   31.17   19.14
  10  -1  -8   14.66   13.25
  10  -1  -7    6.06    8.87
  10  -1  -7  -10.90    7.92
  10  -1  -7   -6.49   10.34
  10  -1  -6   -8.00   10.16
  10  -1  -6    7.07    8.54
  10  -1  -6    4.01   10.84
  10  -1  -5   18.52   14.27
  10  -1  -5   16.56   11.44
  10  -1  -5   10.36   14.34
  10  -1  -4   59.77   24.35
  10  -1  -4   84.15   22.44
  10  -1  -4   89.97   29.33
  10  -1  -3   49.94   21.31
  10  -1  -3   19.64   12.65
  10  -1  -3   38.93   21.52
  10  -1  -2   51.04   19.22
 -10   1   2    0.21   10.27
  10  -1  -2    1.03    7.55
  10  -1  -2   32.49   17.48
  10  -1  -1    6.49   10.06
 -10   1   1   -6.00    9.28
  10  -1  -1   15.86   14.81
  10  -1  -1   -6.76   14.65
  10  -1   0  101.13   27.15
 -10   1   0  126.22   41.67
  10  -1   0   80.04   25.89
  10  -1   0  114.77   37.43
  10  -1   1  229.54   41.50
 -10   1  -1  150.19   43.64
  10  -1   1  201.99   42.17
  10  -1   1  202.12   46.62
  10  -1   2  120.58   31.18
 -10   1  -2  105.97   39.50
  10  -1   2  119.52   32.71
  10  -1   2   51.04   22.49
  10  -1   3  303.21   50.79
  10  -1   4   97.76   29.20
  10   0 -12  169.34   39.75
  10   0 -11   -2.39   12.38
  10   0 -10  340.88   53.51
  10   0  -9  343.73   53.95
  10   0  -9  242.36   49.09
  10   0  -8  122.71   34.46
  10   0  -8   74.31   26.98
  10   0  -7   -4.28    9.75
  10   0  -7   11.84   10.04
  10   0  -7   -0.64    6.78
  10   0  -6   44.78   22.95
  10   0  -6   31.58   12.38
  10   0  -6   20.82   17.56
  10   0  -5  115.05   33.44
  10   0  -5  162.39   30.29
  10   0  -5  119.41   34.99
  10   0  -4   43.06   20.08
  10   0  -4   22.82   12.40
  10   0  -4   54.95   22.72
  10   0  -3   41.61   20.07
  10   0  -3    1.87    7.14
  10   0  -3   46.03   22.16
  10   0  -2   18.81   15.70
 -10   0   2  -17.83   16.29
  10   0  -2   -2.98    9.63
  10   0  -2   13.26   16.66
  10   0  -1   57.09   20.62
 -10   0   1   83.93   31.92
  10   0  -1  116.63   32.68
  10   0  -1   65.91   27.29
  10   0   0  225.57   40.82
 -10   0   0  193.43   48.99
  10   0   0  180.27   39.24
  10   0   0  203.45   44.71
  10   0   1   19.21   14.90
  10   0   1   15.52   11.68
  10   0   1   16.56   11.75
 -10   0  -1    3.34   11.71
  10   0   2   18.24   12.71
  10   0   3   35.95   16.02
  10   0   4  128.49   33.63
  10   1 -12   58.37   23.84
  10   1 -11  524.66   66.48
  10   1 -10  244.72   62.45
  10   1 -10  304.74   51.41
  10   1  -9  289.97   53.11
  10   1  -9  294.08   50.36
  10   1  -8   50.67   21.97
  10   1  -8   31.61   19.22
  10   1  -7   73.64   19.81
  10   1  -7   21.88   12.77
  10   1  -7   64.54   27.64
  10   1  -6  399.89   47.34
  10   1  -6  398.39   58.35
  10   1  -6  255.20   48.44
  10   1  -5  195.29   41.37
  10   1  -5  158.93   39.15
  10   1  -5  227.41   35.90
  10   1  -4   20.45   12.99
  10   1  -4   25.14   19.00
  10   1  -4    5.27    7.28
  10   1  -3  115.88   31.54
  10   1  -3  158.30   40.08
  10   1  -3  113.12   26.76
 -10  -1   2    9.38   14.61
  10   1  -2   12.17   16.75
  10   1  -2   16.95   18.24
  10   1  -2   10.93   10.89
 -10  -1   1  120.80   38.38
  10   1  -1  128.73   33.68
  10   1  -1   99.17   31.36
  10   1  -1   85.10   24.81
 -10  -1   0   21.89   15.35
  10   1   0   38.16   20.12
  10   1   0   27.29   18.25
  10   1   0   35.75   16.33
  10   1   1   16.02   14.65
 -10  -1  -1    4.12   14.39
  10   1   2   63.02   20.70
  10   1   3   15.01   10.06
  10   2 -12  266.41   47.81
  10   2 -11  223.00   42.93
  10   2 -10  166.64   56.22
  10   2 -10  202.23   43.39
  10   2  -9  125.25   48.53
  10   2  -9   96.05   29.80
  10   2  -9   85.57   28.28
  10   2  -8   65.59   42.88
  10   2  -8  131.52   33.62
  10   2  -8  128.95   33.17
  10   2  -7  252.05   71.87
  10   2  -7  245.72   46.28
  10   2  -7  391.09   57.91
  10   2  -6  439.74   50.71
  10   2  -6  354.41   56.24
  10   2  -6  360.55   56.31
  10   2  -5  192.30   33.99
  10   2  -5  151.70   37.97
  10   2  -5  211.96   42.61
  10   2  -4   14.75   15.59
  10   2  -4   -0.18    8.31
  10   2  -4   17.14   16.98
  10   2  -3  120.82   27.79
  10   2  -3  167.17   38.94
  10   2  -3   60.87   23.68
 -10  -2   2  271.46   56.48
  10   2  -2  333.10   48.04
  10   2  -2  277.75   84.36
  10   2  -2  239.22   44.80
  10   2  -2  296.86   53.21
  10   2  -1  106.85   28.99
  10   2  -1   64.52   25.09
 -10  -2   1   74.96   28.10
  10   2  -1  145.83   62.14
  10   2   0   -0.59   14.49
 -10  -2   0   24.85   19.73
  10   2   1   72.01   25.41
  10   2   2   16.46   11.20
  10   3 -10  140.12   49.10
  10   3 -10  213.17   44.22
  10   3  -9  -33.89   34.12
  10   3  -9   -3.66   12.30
  10   3  -8  293.81   82.53
  10   3  -8  250.18   47.14
  10   3  -8  288.02   51.15
  10   3  -7  346.54   89.16
  10   3  -7  318.66   52.17
  10   3  -7  461.95   63.24
  10   3  -6  208.77   68.39
  10   3  -6  132.92   34.03
  10   3  -6  148.48   35.01
  10   3  -5  103.77   26.46
  10   3  -5   24.47   30.84
  10   3  -5   79.03   27.31
  10   3  -5   57.33   24.16
  10   3  -4  233.66   39.44
  10   3  -4  176.04   69.14
  10   3  -4  244.75   45.76
  10   3  -4  222.98   44.64
  10   3  -3  124.17   29.65
  10   3  -3  139.04   53.04
  10   3  -3  127.15   33.67
  10   3  -3  116.61   32.87
  10   3  -2  151.92   32.82
  10   3  -2  137.29   35.51
 -10  -3   2   94.88   31.27
  10   3  -2  182.84   65.81
  10   3  -1  138.63   34.71
 -10  -3   1  136.22   38.41
  10   3   0   24.31   15.28
 -10  -3   0   18.89   11.84
  10   4 -10   57.25   38.42
  10   4  -9   25.58   30.03
  10   4  -8  123.13   34.57
  10   4  -8  200.44   69.47
  10   4  -7  209.78   43.24
  10   4  -7  140.16   36.30
  10   4  -7  217.38   73.16
  10   4  -6  117.96   33.10
  10   4  -6  104.47   29.15
  10   4  -6   93.69   52.21
  10   4  -5   32.25   17.14
  10   4  -5   26.28   13.31
  10   4  -5   49.73   33.11
  10   4  -4   37.64   19.90
  10   4  -4   65.71   25.66
  10   4  -4  106.24   62.65
  10   4  -3  346.46   55.21
 -10  -4   2  197.46   45.94
 -10  -4   1   42.50   25.41
  10   5 -10  120.44   65.44
  10   5  -9  200.08   72.86
  10   5  -8  490.93  116.03
  10   5  -7  100.23   30.09
  10   5  -7  161.18   68.39
  10   5  -6    1.76    6.42
  10   5  -6   45.95   50.74
  10   5  -5  195.30   41.60
  10   6 -10  124.87   56.05
  10   6  -9  475.63  115.96
  10   6  -8   66.67   47.05
  11  -8  -2   74.87   24.47
  11  -8  -1   26.64   13.57
  11  -7  -3   16.49   13.10
  11  -7  -2   75.80   24.84
  11  -7  -1  201.94   39.12
  11  -6  -4   77.24   22.11
  11  -6  -3   90.85   24.02
  11  -6  -2   -3.12   14.22
  11  -6  -1  366.48   52.32
  11  -5  -5  197.48   34.78
  11  -5  -4  190.31   35.30
  11  -5  -3  -16.76   12.01
  11  -5  -2  441.11   55.29
  11  -5  -1   61.89   32.15
  11  -5  -1   72.99   23.20
  11  -5   0   24.17   24.69
  11  -5   0   82.20   26.36
  11  -5   1    9.28   12.85
  11  -5   2   29.19   17.55
  11  -5   3  280.96   68.16
  11  -4  -6  137.06   27.46
  11  -4  -5   57.26   18.88
  11  -4  -4    7.49    8.47
  11  -4  -3  551.05   88.38
  11  -4  -3  511.09   58.45
  11  -4  -2  262.29   64.78
  11  -4  -2  278.69   44.44
  11  -4  -1  223.67   60.06
  11  -4  -1  217.50   39.57
  11  -4   0   35.81   23.70
  11  -4   1  138.68   44.32
  11  -4   2  477.75   84.62
  11  -4   3   86.02   41.94
  11  -3  -7   18.43   12.05
  11  -3  -6    6.06   10.03
  11  -3  -5  166.93   46.45
  11  -3  -5  152.41   30.78
  11  -3  -4   75.41   33.29
  11  -3  -4  133.14   29.98
  11  -3  -3  281.12   63.18
  11  -3  -3  212.84   38.39
  11  -3  -2  193.16   51.61
  11  -3  -2  212.84   39.84
  11  -3  -1  109.44   43.76
  11  -3  -1  118.08   28.88
  11  -3   0   41.19   25.33
  11  -3   1  462.17   80.89
  11  -3   2  206.98   54.83
  11  -2  -7   41.79   15.05
  11  -2  -6   11.65    9.63
  11  -2  -5   17.99   15.97
  11  -2  -5    4.36    6.21
  11  -2  -4  193.68   50.76
  11  -2  -4  240.84   48.19
  11  -2  -4  203.39   36.52
  11  -2  -3   59.92   27.78
  11  -2  -3   79.48   28.32
  11  -2  -3   75.22   24.60
  11  -2  -2    1.07   17.26
  11  -2  -2   18.51   14.85
  11  -2  -2    3.15    6.35
  11  -2  -1   13.58   21.88
  11  -2  -1   18.13   10.84
  11  -2   0  377.68   71.54
  11  -2   1  221.21   54.64
  11  -1  -7    5.22    4.67
  11  -1  -6  108.80   33.37
  11  -1  -6   83.15   22.33
  11  -1  -5   -1.03   12.93
  11  -1  -5   -1.24    6.15
  11  -1  -4    0.72   14.09
  11  -1  -4   20.65   18.04
  11  -1  -4   58.07   20.74
  11  -1  -3   21.04   19.88
  11  -1  -3   67.40   26.99
  11  -1  -3   14.45   15.25
  11  -1  -2  -26.63   20.60
  11  -1  -2   30.38   18.35
  11  -1  -1  196.91   50.77
  11  -1   0   -3.20   13.62
  11   0  -7   73.83   21.62
  11   0  -6   10.85   23.16
  11   0  -6    4.73    7.21
  11   0  -5   22.34   20.71
  11   0  -5   56.73   20.47
  11   0  -4   69.76   30.79
  11   0  -4   50.82   19.53
  11   0  -3  -11.83    9.92
  11   0  -3    5.85    8.11
  11   0  -2  -32.22   21.02
  11   0  -1  -18.43   21.60
  11   1  -7  232.70   50.13
  11   1  -6  397.91   64.17
  11   1  -6  326.53   45.88
  11   1  -5  318.29   58.89
  11   1  -5  299.29   44.78
  11   1  -4   43.15   22.82
  11   1  -4   69.41   22.69
  11   1  -3   -7.48   11.51
  11   1  -2   71.45   28.94
  11   2  -9  309.81   79.81
  11   2  -8  284.72   79.73
  11   2  -7  327.87   57.26
  11   2  -7  398.85   98.46
  11   2  -6  397.44   64.07
  11   2  -6  592.29  118.42
  11   2  -6  471.92   56.49
  11   2  -5   78.30   28.78
  11   2  -5   99.40   52.33
  11   2  -4  163.67   41.27
  11   2  -3  343.54   60.86
  11   3  -9   57.35   38.03
  11   3  -8   76.47   53.49
  11   3  -7  526.98   72.21
  11   3  -7  452.62  107.88
  11   3  -6  135.63   39.81
  11   3  -5  349.28   61.22
  11   4  -9   27.82   29.32
  11   4  -7   55.30   24.86
  11   4  -6  102.26   32.44
  12  -4  -5   10.33    9.18
  12  -3  -5  134.10   30.24
  12  -2  -6   44.72   15.96
  12  -1  -7    0.73    9.01
   0   0   0    0.00    0.00





TITL JL20018x1_refinalized in P-1
REM P-1 (#2 in standard setting)
CELL 0.71073   8.772024  11.175184  12.075070 113.6318 103.2823  97.1770
ZERR    1.00   0.000394   0.000521   0.000552   0.0044   0.0039   0.0038
LATT  1
SFAC C H N O Cl Sn
UNIT 34.00 44.00 6.00 6.00 6.00 1.00
TREF
HKLF 4
END
_computing_structure_solution     'SHELXT 2018/2 (Sheldrick, 2018)'
_computing_structure_solution     'SHELXT 2018/2 (Sheldrick, 2018)'
_computing_structure_solution     'SHELXT 2018/2 (Sheldrick, 2018)'
_computing_structure_solution     'SHELXT 2018/2 (Sheldrick, 2018)'
;
_shelx_hkl_checksum              80348
_olex2_diffrn_ambient_temperature_device 'Oxford Cryosystems Cryostream 700+'
_olex2_submission_special_instructions 'No special instructions were received'
_oxdiff_exptl_absorpt_empirical_details 
;
Empirical correction (ABSPACK) includes:
- Absorption correction using spherical harmonics
- Frame scaling
;
